                                   MODFLOW 6
                U.S. GEOLOGICAL SURVEY MODULAR HYDROLOGIC MODEL
                            VERSION 6.2.0 10/22/2020

   MODFLOW 6 compiled Oct 29 2020 12:19:52 with IFORT compiler (ver. 19.10.3)

This software has been approved for release by the U.S. Geological
Survey (USGS). Although the software has been subjected to rigorous
review, the USGS reserves the right to update the software as needed
pursuant to further analysis and review. No warranty, expressed or
implied, is made by the USGS or the U.S. Government as to the
functionality of the software and related material nor shall the
fact of release constitute any such warranty. Furthermore, the
software is released on condition that neither the USGS nor the U.S.
Government shall be held liable for any damages resulting from its
authorized or unauthorized use. Also refer to the USGS Water
Resources Software User Rights Notice for complete use, copyright,
and distribution information.


System command used to initiate simulation:
mf6

MODFLOW was compiled using uniform precision.

Real Variables
  KIND: 8
  TINY (smallest non-zero value):    2.225074-308
  HUGE (largest value):    1.797693+308
  PRECISION: 15
  BIT SIZE: 64

Integer Variables
  KIND: 4
  HUGE (largest value): 2147483647
  BIT SIZE: 32

Long Integer Variables
  KIND: 8
  HUGE (largest value): 9223372036854775807
  BIT SIZE: 64

Logical Variables
  KIND: 4
  BIT SIZE: 32


 OPENED mfsim.nam
 FILE TYPE:NAM   UNIT 1001   STATUS:OLD
 FORMAT:FORMATTED              ACCESS:SEQUENTIAL
 ACTION:READ


 READING SIMULATION OPTIONS
 END OF SIMULATION OPTIONS

 READING SIMULATION TIMING

 OPENED mfsim.tdis
 FILE TYPE:TDIS   UNIT 1002   STATUS:OLD
 FORMAT:FORMATTED              ACCESS:SEQUENTIAL
 ACTION:READ


 TDIS -- TEMPORAL DISCRETIZATION PACKAGE,
 VERSION 1 : 11/13/2014 - INPUT READ FROM UNIT 1002
 PROCESSING TDIS OPTIONS
    SIMULATION TIME UNIT IS DAYS
    SIMULATION STARTING DATE AND TIME IS 1998-04-01
 END OF TDIS OPTIONS
 PROCESSING TDIS DIMENSIONS
   19 STRESS PERIOD(S) IN SIMULATION
 END OF TDIS DIMENSIONS
 PROCESSING TDIS PERIODDATA


 STRESS PERIOD     LENGTH       TIME STEPS     MULTIPLIER FOR DELT
 ----------------------------------------------------------------------------
        1         1.000000          1                    1.000
        2         3287.000         10                    1.500
        3         183.0000          5                    1.500
        4         183.0000          5                    1.500
        5         183.0000          5                    1.500
        6         182.0000          5                    1.500
        7         183.0000          5                    1.500
        8         182.0000          5                    1.500
        9         183.0000          5                    1.500
       10         182.0000          5                    1.500
       11         183.0000          5                    1.500
       12         183.0000          5                    1.500
       13         183.0000          5                    1.500
       14         182.0000          5                    1.500
       15         183.0000          5                    1.500
       16         182.0000          5                    1.500
       17         183.0000          5                    1.500
       18         182.0000          5                    1.500
       19         183.0000          5                    1.500
 END OF TDIS PERIODDATA
 END OF SIMULATION TIMING

 READING SIMULATION MODELS
    GWF6 model SHELLMOUND will be created as model 1
 END OF SIMULATION MODELS

 READING SIMULATION EXCHANGES
 END OF SIMULATION EXCHANGES

 READING SOLUTIONGROUP

 Creating solution: SLN_1

 OPENED mfsim.ims
 FILE TYPE:IMS   UNIT 1014   STATUS:OLD
 FORMAT:FORMATTED              ACCESS:SEQUENTIAL
 ACTION:READ

 END OF SIMULATION SOLUTIONGROUP

 IMS -- ITERATIVE MODEL SOLUTION PACKAGE, VERSION 6, 4/28/2017
         INPUT READ FROM UNIT 1014

 PROCESSING IMS OPTIONS
 MODERATE OPTION:
 DEFAULT SOLVER INPUT VALUES REFLECT MODERETELY NONLINEAR MODEL
 END OF IMS OPTIONS

 PROCESSING IMS NONLINEAR
 END OF IMS NONLINEAR DATA
 **UNDER-RELAXATION WILL BE USED***

 ***IMS LINEAR SOLVER WILL BE USED***

 IMSLINEAR -- UNSTRUCTURED LINEAR SOLUTION PACKAGE, VERSION 8, 04/28/2017

 PROCESSING LINEAR DATA
 END OF LINEAR DATA

 OUTER ITERATION CONVERGENCE CRITERION    (DVCLOSE) =    0.100000E+00
 MAXIMUM NUMBER OF OUTER ITERATIONS        (MXITER) = 200
 SOLVER PRINTOUT INDEX                     (IPRIMS) = 2
 NONLINEAR ITERATION METHOD            (NONLINMETH) = 3
 LINEAR SOLUTION METHOD                   (LINMETH) = 1
 UNDER-RELAXATION WEIGHT REDUCTION FACTOR   (THETA) =    0.700000E+00
 UNDER-RELAXATION WEIGHT INCREASE INCREMENT (KAPPA) =    0.100000E+00
 UNDER-RELAXATION PREVIOUS HISTORY FACTOR   (GAMMA) =    0.000000E+00
 UNDER-RELAXATION MOMENTUM TERM         (AMOMENTUM) =    0.000000E+00

       SOLUTION BY THE BICONJUGATE-GRADIENT STABILIZED METHOD
 ------------------------------------------------------------------
 MAXIMUM OF 200 CALLS OF SOLUTION ROUTINE
 MAXIMUM OF 100 INTERNAL ITERATIONS PER CALL TO SOLUTION ROUTINE
 LINEAR ACCELERATION METHOD            = BCGS
 MATRIX PRECONDITIONING TYPE           = INCOMPLETE LUT
 MATRIX SCALING APPROACH               = NO SCALING
 MATRIX REORDERING APPROACH            = ORIGINAL ORDERING
 NUMBER OF ORTHOGONALIZATIONS          = 0
 HEAD CHANGE CRITERION FOR CLOSURE     =    0.10000E-01
 RESIDUAL CHANGE CRITERION FOR CLOSURE =    0.10000E-03
 RESIDUAL CONVERGENCE OPTION           = 3
 RESIDUAL CONVERGENCE NORM             = RELATIVE L2NORM
 RELAXATION FACTOR                     =    0.00000E+00
 NUMBER OF LEVELS                      =              7
 DROP TOLERANCE                        =    0.10000E-02


1
                            STRESS PERIOD NO.    1, LENGTH =   1.000000
                            -----------------------------------------------

                              NUMBER OF TIME STEPS =     1

                               MULTIPLIER FOR DELT =     1.000

                            INITIAL TIME STEP SIZE =   1.000000



 PSEUDO-TRANSIENT CONTINUATION WILL BE APPLIED TO MODEL 1 ("SHELLMOUND") DURING THIS TIME STEP

 OUTER ITERATION SUMMARY
 ----------------------------------------------------------------------------------------------------------
                                OUTER      INNER                    STEP   MAXIMUM CHANGE MODEL-(CELLID) OR
 OUTER ITERATION STEP       ITERATION  ITERATION  MAXIMUM CHANGE SUCCESS             MODEL-PACKAGE-(NUMBER)
 ----------------------------------------------------------------------------------------------------------
 Model                              1          2     -0.80735885                             1_GWF-(1,22,3)
 Model                              2          2     -0.95880831                             1_GWF-(3,22,3)
 Model                              3          2     -0.90098108                            1_GWF-(12,22,3)
 Model                              4          2     -0.85769832                            1_GWF-(13,22,3)
 Model                              5          2     -0.74838983                            1_GWF-(13,22,3)
 Model                              6          2     -0.65021903                            1_GWF-(13,17,3)
 Model                              7          2     -0.62055404                            1_GWF-(13,17,3)
 Model                              8          2     -0.51461817                            1_GWF-(13,17,3)
 Model                              9          2     -0.46133488                            1_GWF-(13,17,3)
 Model                             10          2     -0.43540302                           1_GWF-(13,27,33)
 Model                             11          3     -0.43121710                           1_GWF-(13,27,33)
 Model                             12          3     -0.41760867                            1_GWF-(13,19,3)
 Model                             13          3     -0.38585988                            1_GWF-(13,19,3)
 Model                             14          3     -0.33186512                            1_GWF-(13,19,3)
 Model                             15          3     -0.41387877                            1_GWF-(13,19,3)
 Model                             16          3     -0.36845899                             1_GWF-(13,1,9)
 Model                             17          3     -0.34802860                             1_GWF-(13,1,9)
 Model                             18          3     -0.33496012                             1_GWF-(13,6,6)
 Model                             19          3     -0.32721877                              1_GWF-(4,7,6)
 Model                             20          3     -0.35041825                             1_GWF-(13,7,6)
 Model                             21          3     -0.34016825                             1_GWF-(13,7,6)
 Model                             22          3     -0.33089507                              1_GWF-(4,7,7)
 Model                             23          3     -0.31248990                              1_GWF-(4,7,7)
 Model                             24          3     -0.32585535                             1_GWF-(13,3,3)
 Model                             25          3     -0.32514138                             1_GWF-(13,2,3)
 Model                             26          3     -0.33881584                             1_GWF-(13,2,3)
 Model                             27          3     -0.35275679                             1_GWF-(13,1,3)
 Model                             28          3     -0.36016783                             1_GWF-(13,1,3)
 Model                             29          3     -0.36107627                             1_GWF-(13,1,3)
 Model                             30          4     -0.35141724                             1_GWF-(13,1,3)
 Model                             31          4     -0.34182304                             1_GWF-(13,1,3)
 Model                             32          4     -0.32672432                             1_GWF-(13,1,3)
 Model                             33          4     -0.30838125                             1_GWF-(13,1,3)
 Model                             34          4     -0.28583353                             1_GWF-(13,1,3)
 Model                             35          4     -0.25933922                             1_GWF-(13,1,3)
 Model                             36          4     -0.23302592                             1_GWF-(13,1,3)
 Model                             37          4     -0.22538854                            1_GWF-(13,1,21)
 Model                             38          4     -0.22175001                            1_GWF-(13,1,21)
 Model                             39          4     -0.21290543                            1_GWF-(13,1,21)
 Model                             40          4     -0.21039789                            1_GWF-(13,1,21)
 Model                             41          4     -0.20488359                            1_GWF-(13,1,21)
 Model                             42          4     -0.19896591                            1_GWF-(13,1,21)
 Model                             43          4     -0.19363521                            1_GWF-(13,1,20)
 Model                             44          4     -0.18385953                            1_GWF-(13,1,20)
 Model                             45          4     -0.17468049                            1_GWF-(13,1,20)
 Model                             46          4     -0.18539380                            1_GWF-(4,21,30)
 Model                             47          4     -0.22549924                            1_GWF-(4,22,29)
 Model                             48          4     -0.29900351                            1_GWF-(4,22,28)
 Model                             49          4     -0.25523150                            1_GWF-(4,20,27)
 Model                             50          4     -0.22075778                            1_GWF-(4,19,28)
 Model                             51          4     -0.22756218                            1_GWF-(4,18,29)
 Model                             52          4     -0.16420616                            1_GWF-(4,17,30)
 Model                             53          5     -0.14901261                            1_GWF-(4,16,31)
 Model                             54          6     -0.13946725                            1_GWF-(13,1,20)
 Model                             55          5     -0.15734799                            1_GWF-(4,13,32)
 Model                             56          5     -0.14717071                            1_GWF-(13,1,21)
 Model                             57          6     -0.13210574                            1_GWF-(13,1,22)
 Model                             58          5     -0.13182778                            1_GWF-(4,23,32)
 Model                             59          5     -0.23087829                            1_GWF-(4,20,34)
 Model                             60          6     -0.17629634                           1_GWF-(13,20,34)
 Model                             61          6     -0.14438623                            1_GWF-(13,1,27)
 Model                             62          6     -0.15326912                            1_GWF-(13,1,33)
 Model                             63          6     -0.15775698                            1_GWF-(13,1,34)
 Model                             64          6     -0.15070872                            1_GWF-(13,1,34)
 Model                             65          7     -0.16822037                            1_GWF-(13,1,34)
 Model                             66          7     -0.20132566                            1_GWF-(13,1,34)
 Model                             67          7     -0.18311154                            1_GWF-(13,1,34)
 Model                             68          7     -0.18007836                            1_GWF-(13,1,34)
 Model                             69          7     -0.17114445                            1_GWF-(13,1,34)
 Model                             70          8     -0.16376672                            1_GWF-(13,1,34)
 Model                             71          7     -0.15206516                            1_GWF-(13,1,34)
 Model                             72          7     -0.13923230                            1_GWF-(13,1,34)
 Model                             73          6     -0.10209498                            1_GWF-(13,1,34)
 Model                             74          6 -9.20661640E-02       *                    1_GWF-(13,1,34)
 Package                           74                 0.80974473                   1_GWF-SFR_0-(311)-inflow
 Model                             75          5 -7.71073218E-02       *                    1_GWF-(13,1,34)
 Package                           75                 0.68848358                   1_GWF-SFR_0-(311)-inflow
 Model                             76          6 -8.54045877E-02       *                    1_GWF-(13,1,33)
 Package                           76                 0.65629992                   1_GWF-SFR_0-(258)-inflow
 Model                             77          6 -8.36176229E-02       *                    1_GWF-(13,1,34)
 Package                           77                 0.63482834                   1_GWF-SFR_0-(258)-inflow
 Model                             78          6 -8.56174613E-02       *                    1_GWF-(12,1,33)
 Package                           78                 0.62855315                   1_GWF-SFR_0-(258)-inflow
 Model                             79          6 -7.70490555E-02       *                    1_GWF-(12,1,34)
 Package                           79                 0.61540609                   1_GWF-SFR_0-(311)-inflow
 Model                             80          6 -7.76575149E-02       *                    1_GWF-(13,1,33)
 Package                           80                 0.55729803                   1_GWF-SFR_0-(311)-inflow
 Model                             81          6 -7.06248700E-02       *                    1_GWF-(12,1,34)
 Package                           81                 0.53999501                   1_GWF-SFR_0-(311)-inflow
 Model                             82          6 -6.79090179E-02       *                    1_GWF-(12,1,33)
 Package                           82                 0.50776108                   1_GWF-SFR_0-(311)-inflow
 Model                             83          6 -7.23727686E-02       *                    1_GWF-(13,1,34)
 Package                           83                 0.47774706                   1_GWF-SFR_0-(311)-inflow
 Model                             84          6 -6.00748097E-02       *                    1_GWF-(4,13,13)
 Package                           84                 0.49607152                   1_GWF-SFR_0-(311)-inflow
 Model                             85          6 -5.86405158E-02       *                    1_GWF-(4,13,12)
 Package                           85                 0.41524000                   1_GWF-SFR_0-(311)-inflow
 Model                             86          6 -5.69112615E-02       *                    1_GWF-(12,1,33)
 Package                           86                 0.40747925                   1_GWF-SFR_0-(311)-inflow
 Model                             87          3 -5.61503081E-02       *                    1_GWF-(4,13,12)
 Package                           87                 0.38471640                   1_GWF-SFR_0-(311)-inflow
 Model                             88          5 -6.34262231E-02       *                    1_GWF-(11,6,28)
 Package                           88                 0.39056811                   1_GWF-SFR_0-(258)-inflow
 Model                             89          5 -5.45521102E-02       *                    1_GWF-(10,6,34)
 Package                           89                 0.46387996                   1_GWF-SFR_0-(311)-inflow
 Model                             90          6 -5.45942205E-02       *                    1_GWF-(13,1,34)
 Package                           90                 0.33104674                   1_GWF-SFR_0-(311)-inflow
 Model                             91          5 -5.13084154E-02       *                    1_GWF-(13,1,34)
 Package                           91                 0.30630761                   1_GWF-SFR_0-(311)-inflow
 Model                             92          5 -4.20259963E-02       *                    1_GWF-(11,5,30)
 Package                           92                 0.34039578                   1_GWF-SFR_0-(311)-inflow
 Model                             93          3 -5.29263973E-02       *                    1_GWF-(4,12,11)
 Package                           93                 0.26575176                   1_GWF-SFR_0-(311)-inflow
 Model                             94          5 -4.43892888E-02       *                    1_GWF-(11,5,28)
 Package                           94                 0.20981040                   1_GWF-SFR_0-(311)-inflow
 Model                             95          2 -3.35857998E-02       *                    1_GWF-(4,12,10)
 Package                           95                 0.20765801                   1_GWF-SFR_0-(311)-inflow
 Model                             96          4 -3.78404566E-02       *                     1_GWF-(6,2,33)
 Package                           96                 0.17071175                   1_GWF-SFR_0-(258)-inflow
 Model                             97          2 -3.43133534E-02       *                    1_GWF-(4,11,10)
 Package                           97                 0.22599076                   1_GWF-SFR_0-(311)-inflow
 Model                             98          5 -4.43410781E-02       *                     1_GWF-(6,5,31)
 Package                           98             9.69160812E-02       *           1_GWF-SFR_0-(311)-inflow
 ----------------------------------------------------------------------------------------------------------


 98 CALLS TO NUMERICAL SOLUTION IN TIME STEP 1 STRESS PERIOD 1
 426 TOTAL ITERATIONS

 INNER ITERATION SUMMARY
 --------------------------------------------------------------------------------------------------------------------------------------
      TOTAL      OUTER      INNER                                                            MAXIMUM
  ITERATION  ITERATION  ITERATION  MAXIMUM CHANGE      MAXIMUM CHANGE MODEL-(CELLID)        RESIDUAL    MAXIMUM RESIDUAL MODEL-(CELLID)
 --------------------------------------------------------------------------------------------------------------------------------------
          1          1          1     -0.80733906                     1_GWF-(1,22,3)       30.972099                    1_GWF-(6,18,31)
          2          1          2 -9.12773810E-05                    1_GWF-(6,20,31)  1.25303106E-02                    1_GWF-(6,18,31)
          3          2          1     -0.95841335                     1_GWF-(3,22,3)       186.82313                    1_GWF-(6,10,31)
          4          2          2 -1.52236882E-03                     1_GWF-(5,3,31)      0.48947919                    1_GWF-(6,10,31)
          5          3          1     -0.90031619                    1_GWF-(12,22,3)       296.37974                    1_GWF-(6,11,30)
          6          3          2 -2.56191659E-03                     1_GWF-(5,3,31)       1.0546723                    1_GWF-(6,10,31)
          7          4          1     -0.85686991                    1_GWF-(13,22,3)       301.34952                    1_GWF-(6,11,30)
          8          4          2 -3.17746666E-03                     1_GWF-(5,3,31)       1.4847171                    1_GWF-(6,10,31)
          9          5          1     -0.74747768                    1_GWF-(13,22,3)       280.70951                    1_GWF-(6,11,30)
         10          5          2 -3.64170103E-03                     1_GWF-(5,3,31)       1.9494890                    1_GWF-(6,10,31)
         11          6          1     -0.64973810                    1_GWF-(13,17,3)       250.95420                    1_GWF-(6,10,31)
         12          6          2 -4.03860614E-03                     1_GWF-(6,6,29)       2.3813892                     1_GWF-(6,8,29)
         13          7          1     -0.61975174                    1_GWF-(13,17,3)       248.90317                    1_GWF-(6,10,31)
         14          7          2 -5.60890057E-03                     1_GWF-(6,6,29)       3.8085692                     1_GWF-(6,8,29)
         15          8          1     -0.51381713                    1_GWF-(13,17,3)       207.03070                     1_GWF-(6,2,32)
         16          8          2 -5.58858673E-03                     1_GWF-(6,6,29)       4.1111447                     1_GWF-(6,8,29)
         17          9          1     -0.45991906                    1_GWF-(13,17,3)       252.58557                     1_GWF-(6,2,32)
         18          9          2 -8.09536025E-03                     1_GWF-(7,7,28)       7.4826043                     1_GWF-(6,8,29)
         19         10          1     -0.43218001                   1_GWF-(13,27,33)       261.60612                     1_GWF-(6,8,29)
         20         10          2 -9.28941661E-03                     1_GWF-(7,7,28)       9.0179526                     1_GWF-(6,8,29)
         21         11          1     -0.42623409                   1_GWF-(13,27,33)       289.43359                     1_GWF-(6,8,29)
         22         11          2 -1.19129167E-02                     1_GWF-(6,2,32)       12.509109                     1_GWF-(6,8,29)
         23         11          3 -5.05163218E-04                    1_GWF-(6,10,33)      0.67855322                     1_GWF-(7,6,27)
         24         12          1     -0.41076809                    1_GWF-(13,19,3)       290.34266                     1_GWF-(6,8,29)
         25         12          2 -1.40574079E-02                     1_GWF-(6,3,32)       14.668197                     1_GWF-(6,8,29)
         26         12          3 -7.42589466E-04                    1_GWF-(6,10,33)      0.94976270                     1_GWF-(6,8,33)
         27         13          1     -0.37834067                    1_GWF-(13,19,3)       278.13769                     1_GWF-(6,10,3)
         28         13          2 -1.42497199E-02                     1_GWF-(6,3,32)       12.007536                     1_GWF-(6,8,29)
         29         13          3 -7.03266839E-04                    1_GWF-(6,10,33)      0.80970137                     1_GWF-(6,8,33)
         30         14          1     -0.32586745                    1_GWF-(13,19,3)       366.78610                     1_GWF-(6,10,3)
         31         14          2 -1.14402535E-02                     1_GWF-(6,3,32)       8.5509775                     1_GWF-(6,8,29)
         32         14          3 -5.26375294E-04                    1_GWF-(6,10,33)      0.50228291                     1_GWF-(6,8,33)
         33         15          1     -0.39932819                     1_GWF-(13,1,9)       280.58907                     1_GWF-(6,3,32)
         34         15          2 -2.55491885E-02                     1_GWF-(6,3,32)       23.954012                     1_GWF-(6,5,27)
         35         15          3 -2.12019890E-03                    1_GWF-(6,10,33)       2.8405905                     1_GWF-(6,8,33)
         36         16          1     -0.35682245                     1_GWF-(13,1,9)       275.31146                    1_GWF-(4,24,31)
         37         16          2 -2.62635204E-02                    1_GWF-(5,17,33)       21.824775                     1_GWF-(6,5,27)
         38         16          3 -2.06882919E-03                     1_GWF-(5,9,33)       2.4535925                     1_GWF-(6,8,33)
         39         17          1     -0.33469985                     1_GWF-(13,1,9)       302.64186                    1_GWF-(4,24,31)
         40         17          2 -3.13234760E-02                    1_GWF-(5,17,33)       29.558563                    1_GWF-(6,16,32)
         41         17          3 -2.99868651E-03                     1_GWF-(6,9,33)       3.4088253                     1_GWF-(6,8,32)
         42         18          1     -0.31205751                      1_GWF-(4,6,6)       317.92725                    1_GWF-(4,24,31)
         43         18          2 -3.41412609E-02                    1_GWF-(6,16,33)       28.787807                    1_GWF-(6,16,32)
         44         18          3 -3.45345487E-03                     1_GWF-(6,9,33)       4.1142770                     1_GWF-(6,8,32)
         45         19          1     -0.30026040                      1_GWF-(3,7,6)      -511.39309                   1_GWF-(10,13,26)
         46         19          2 -3.53091984E-02                    1_GWF-(6,16,33)       31.414564                     1_GWF-(6,4,33)
         47         19          3 -3.70697742E-03                     1_GWF-(6,9,33)       4.6281004                     1_GWF-(6,8,32)
         48         20          1     -0.31492822                      1_GWF-(4,7,6)       353.33449                    1_GWF-(4,24,31)
         49         20          2 -4.23203053E-02                    1_GWF-(6,16,33)       39.825051                     1_GWF-(6,4,33)
         50         20          3 -5.05976619E-03                     1_GWF-(6,9,33)       7.4412981                     1_GWF-(6,8,33)
         51         21          1     -0.30227960                      1_GWF-(4,7,6)       355.81654                    1_GWF-(4,24,31)
         52         21          2 -4.25145000E-02                    1_GWF-(6,16,33)       43.018395                     1_GWF-(6,6,33)
         53         21          3 -5.35227117E-03                     1_GWF-(6,8,33)       8.7155655                     1_GWF-(6,8,33)
         54         22          1     -0.28850084                      1_GWF-(4,7,7)      -405.79118                    1_GWF-(9,14,24)
         55         22          2 -4.20188876E-02                     1_GWF-(12,7,7)       44.301650                     1_GWF-(6,6,33)
         56         22          3 -5.54508639E-03                     1_GWF-(6,8,33)       9.4867077                     1_GWF-(6,8,33)
         57         23          1     -0.27180565                      1_GWF-(4,7,7)      -602.60851                    1_GWF-(9,14,24)
         58         23          2 -4.03168128E-02                     1_GWF-(12,7,7)       42.779541                     1_GWF-(6,6,33)
         59         23          3 -5.33595877E-03                     1_GWF-(6,8,33)       9.3693669                     1_GWF-(6,8,33)
         60         24          1     -0.28033575                     1_GWF-(1,12,3)       332.14280                    1_GWF-(4,24,31)
         61         24          2 -5.39292106E-02                      1_GWF-(1,3,4)       52.091924                     1_GWF-(6,6,33)
         62         24          3 -7.29194494E-03                     1_GWF-(6,8,33)       13.069718                     1_GWF-(6,6,33)
         63         25          1     -0.27663954                     1_GWF-(1,12,3)       319.10052                    1_GWF-(4,24,31)
         64         25          2 -5.70614678E-02                      1_GWF-(9,2,4)       51.149454                     1_GWF-(6,6,33)
         65         25          3 -7.26337090E-03                     1_GWF-(6,8,33)       13.321222                     1_GWF-(6,6,33)
         66         26          1     -0.28475533                     1_GWF-(12,2,3)       309.26891                    1_GWF-(4,24,31)
         67         26          2 -6.22186488E-02                      1_GWF-(9,2,4)       49.586303                     1_GWF-(6,6,33)
         68         26          3 -7.88108585E-03                     1_GWF-(6,9,33)       13.046849                     1_GWF-(6,9,33)
         69         27          1     -0.29124637                     1_GWF-(13,1,3)       304.03615                    1_GWF-(4,22,13)
         70         27          2 -6.63781939E-02                      1_GWF-(9,2,4)       47.479834                     1_GWF-(6,6,33)
         71         27          3 -8.15303267E-03                     1_GWF-(6,9,33)       12.535661                     1_GWF-(6,9,33)
         72         28          1     -0.29344818                     1_GWF-(13,1,3)       300.25815                    1_GWF-(4,22,13)
         73         28          2 -6.96269937E-02                      1_GWF-(9,2,4)       45.903007                     1_GWF-(6,6,33)
         74         28          3 -8.13990570E-03                     1_GWF-(6,9,33)       12.048974                     1_GWF-(6,8,33)
         75         29          1     -0.28968758                     1_GWF-(13,1,3)       290.85920                    1_GWF-(4,22,13)
         76         29          2 -7.22561407E-02                      1_GWF-(9,2,4)       43.939773                     1_GWF-(6,6,33)
         77         29          3 -9.01747431E-03                    1_GWF-(12,18,7)       11.564245                     1_GWF-(6,8,33)
         78         30          1     -0.27943797                     1_GWF-(13,1,3)       267.84916                    1_GWF-(4,22,13)
         79         30          2 -7.34787895E-02                      1_GWF-(9,2,4)       45.389586                    1_GWF-(11,19,8)
         80         30          3 -1.03087865E-02                    1_GWF-(12,18,7)       10.590183                     1_GWF-(6,8,33)
         81         30          4 -2.84996758E-03                     1_GWF-(6,9,33)      -4.8771294                      1_GWF-(9,3,4)
         82         31          1     -0.26678814                     1_GWF-(13,1,3)       254.42635                    1_GWF-(4,22,13)
         83         31          2 -7.48939435E-02                      1_GWF-(9,2,4)       49.257458                    1_GWF-(11,19,8)
         84         31          3 -1.20485897E-02                    1_GWF-(11,20,8)       11.101103                    1_GWF-(11,19,8)
         85         31          4 -2.83259508E-03                    1_GWF-(11,20,8)      -5.3205810                      1_GWF-(9,3,4)
         86         32          1     -0.25012006                     1_GWF-(13,1,3)       240.25798                    1_GWF-(4,22,13)
         87         32          2 -7.47449569E-02                      1_GWF-(9,2,4)       53.659208                    1_GWF-(11,18,9)
         88         32          3 -1.40073046E-02                    1_GWF-(11,20,8)       11.866188                    1_GWF-(11,19,8)
         89         32          4 -3.16218936E-03                    1_GWF-(11,20,8)      -5.5897230                      1_GWF-(9,3,4)
         90         33          1     -0.23090229                     1_GWF-(13,1,3)       227.32855                    1_GWF-(4,22,13)
         91         33          2 -7.39793434E-02                      1_GWF-(9,2,4)       57.483567                    1_GWF-(11,18,9)
         92         33          3 -1.63623522E-02                    1_GWF-(11,20,8)       12.493716                    1_GWF-(11,19,8)
         93         33          4 -3.61895705E-03                    1_GWF-(11,20,8)      -5.3046242                      1_GWF-(9,3,4)
         94         34          1     -0.22403987                    1_GWF-(13,2,21)       211.79173                    1_GWF-(4,22,13)
         95         34          2 -7.10461595E-02                      1_GWF-(9,2,4)       59.575395                    1_GWF-(11,18,9)
         96         34          3 -1.84110201E-02                    1_GWF-(11,20,8)       12.653466                    1_GWF-(11,19,8)
         97         34          4 -3.90495610E-03                    1_GWF-(11,20,8)      -5.1753579                      1_GWF-(9,3,4)
         98         35          1     -0.22585325                    1_GWF-(13,2,21)       188.37451                    1_GWF-(4,24,31)
         99         35          2 -6.94520658E-02                    1_GWF-(11,19,8)       60.426040                    1_GWF-(11,20,7)
        100         35          3 -2.01678276E-02                    1_GWF-(11,20,8)       12.489519                    1_GWF-(11,19,8)
        101         35          4 -4.05045324E-03                    1_GWF-(11,20,8)      -4.8155208                      1_GWF-(9,3,4)
        102         36          1     -0.22716991                    1_GWF-(13,2,21)       221.37709                    1_GWF-(4,16,17)
        103         36          2 -6.78303042E-02                    1_GWF-(11,20,8)       60.896685                    1_GWF-(11,20,7)
        104         36          3 -2.18895127E-02                    1_GWF-(11,20,8)       12.271482                    1_GWF-(11,19,8)
        105         36          4 -4.18362045E-03                    1_GWF-(11,20,8)      -4.6139689                      1_GWF-(9,3,4)
        106         37          1     -0.22783641                    1_GWF-(13,2,21)       185.34310                    1_GWF-(4,15,17)
        107         37          2 -6.55087937E-02                    1_GWF-(11,20,8)       60.987557                    1_GWF-(11,20,8)
        108         37          3 -2.38366568E-02                    1_GWF-(10,21,8)       11.948036                    1_GWF-(11,19,8)
        109         37          4 -4.23985443E-03                    1_GWF-(11,20,8)      -4.7740215                      1_GWF-(9,3,4)
        110         38          1     -0.22432722                    1_GWF-(13,2,21)       150.00460                     1_GWF-(6,2,27)
        111         38          2 -6.15775337E-02                    1_GWF-(11,20,8)       60.541563                    1_GWF-(11,20,8)
        112         38          3 -2.48398102E-02                    1_GWF-(10,21,8)       12.150190                    1_GWF-(11,19,8)
        113         38          4 -4.46466930E-03                    1_GWF-(11,20,8)      -4.6846145                      1_GWF-(9,3,4)
        114         39          1     -0.21616164                    1_GWF-(13,2,21)       181.15332                    1_GWF-(4,26,17)
        115         39          2 -5.57914563E-02                    1_GWF-(11,21,8)       57.285825                    1_GWF-(11,20,8)
        116         39          3 -2.53940852E-02                    1_GWF-(10,21,8)       9.5651131                    1_GWF-(11,19,8)
        117         39          4 -3.02797913E-03                    1_GWF-(11,20,8)      -5.6223931                      1_GWF-(9,3,4)
        118         40          1     -0.21306732                    1_GWF-(13,2,21)       159.15602                    1_GWF-(4,26,18)
        119         40          2 -5.21714165E-02                    1_GWF-(11,21,8)       56.792995                    1_GWF-(11,20,8)
        120         40          3 -2.59606248E-02                    1_GWF-(10,21,8)       11.250368                    1_GWF-(11,19,8)
        121         40          4 -4.30395096E-03                    1_GWF-(10,21,8)      -4.6720286                      1_GWF-(9,3,4)
        122         41          1     -0.20699956                    1_GWF-(13,2,20)       142.27604                     1_GWF-(4,6,11)
        123         41          2 -4.76374552E-02                    1_GWF-(11,21,8)       54.997417                    1_GWF-(11,20,8)
        124         41          3 -2.59565193E-02                    1_GWF-(10,21,8)       11.680174                    1_GWF-(11,19,8)
        125         41          4 -4.75346666E-03                    1_GWF-(10,21,8)      -4.4428031                      1_GWF-(9,3,4)
        126         42          1     -0.20042918                    1_GWF-(13,2,20)       116.18946                     1_GWF-(6,2,27)
        127         42          2 -4.33510944E-02                    1_GWF-(10,22,8)       52.201521                    1_GWF-(11,20,8)
        128         42          3 -2.57240051E-02                    1_GWF-(10,22,8)       11.615631                    1_GWF-(11,19,8)
        129         42          4 -4.94272028E-03                    1_GWF-(11,22,8)      -4.6815645                      1_GWF-(9,3,4)
        130         43          1     -0.19374880                    1_GWF-(13,2,20)       110.02128                     1_GWF-(6,2,27)
        131         43          2 -3.96109333E-02                    1_GWF-(11,25,8)       49.382109                     1_GWF-(6,2,27)
        132         43          3 -2.50772348E-02                    1_GWF-(10,22,8)       11.728703                    1_GWF-(11,19,8)
        133         43          4 -5.34094620E-03                    1_GWF-(11,22,8)      -4.5087402                      1_GWF-(9,3,4)
        134         44          1     -0.18376915                    1_GWF-(13,1,20)       102.88668                     1_GWF-(6,2,27)
        135         44          2 -3.48664141E-02                    1_GWF-(11,25,8)       47.672359                     1_GWF-(6,2,27)
        136         44          3 -2.30762053E-02                    1_GWF-(10,23,8)       11.468801                    1_GWF-(11,20,8)
        137         44          4 -5.41530061E-03                    1_GWF-(11,22,8)      -3.5908845                      1_GWF-(9,3,4)
        138         45          1     -0.17410944                    1_GWF-(13,1,20)       97.909241                     1_GWF-(6,2,27)
        139         45          2 -3.06497430E-02                    1_GWF-(11,25,8)       43.540972                     1_GWF-(6,2,27)
        140         45          3 -2.15423965E-02                    1_GWF-(10,23,8)       10.551915                    1_GWF-(11,20,8)
        141         45          4 -4.99826076E-03                    1_GWF-(11,22,8)      -3.7032257                      1_GWF-(9,3,4)
        142         46          1     -0.18158967                    1_GWF-(4,21,30)      -124.12175                    1_GWF-(6,19,31)
        143         46          2 -2.42039277E-02                    1_GWF-(11,4,26)       37.737951                     1_GWF-(6,2,27)
        144         46          3 -1.61614493E-02                    1_GWF-(10,23,8)      -14.188210                    1_GWF-(6,19,31)
        145         46          4 -3.53650210E-03                    1_GWF-(11,22,8)       4.2481948                    1_GWF-(6,19,31)
        146         47          1     -0.22440158                    1_GWF-(4,22,29)       121.80077                    1_GWF-(4,22,29)
        147         47          2 -2.14079593E-02                     1_GWF-(7,4,26)       47.015635                     1_GWF-(6,2,27)
        148         47          3 -1.44587795E-02                    1_GWF-(10,23,8)       7.4489309                     1_GWF-(6,2,27)
        149         47          4 -2.97980379E-03                    1_GWF-(11,22,8)       3.0399034                     1_GWF-(6,1,30)
        150         48          1     -0.30291144                    1_GWF-(4,22,28)       119.36465                    1_GWF-(4,22,28)
        151         48          2 -1.81268192E-02                     1_GWF-(6,2,27)       40.203833                     1_GWF-(6,2,27)
        152         48          3 -1.17053562E-02                    1_GWF-(11,2,27)       6.2539193                     1_GWF-(6,2,27)
        153         48          4 -2.07311070E-03                    1_GWF-(11,22,8)       2.7543814                     1_GWF-(6,1,28)
        154         49          1     -0.25352582                    1_GWF-(4,20,27)       145.50609                    1_GWF-(4,20,27)
        155         49          2 -2.45083963E-02                    1_GWF-(11,3,26)       52.398063                     1_GWF-(6,2,27)
        156         49          3 -1.86446818E-02                    1_GWF-(11,2,27)       10.774484                     1_GWF-(6,2,27)
        157         49          4 -4.40056262E-03                    1_GWF-(11,22,8)       4.8664908                     1_GWF-(6,1,28)
        158         50          1     -0.22040379                    1_GWF-(4,19,28)       81.976431                     1_GWF-(6,2,27)
        159         50          2 -2.14249255E-02                    1_GWF-(11,3,26)       45.376038                     1_GWF-(6,3,27)
        160         50          3 -1.79313842E-02                    1_GWF-(10,2,27)       9.8931988                     1_GWF-(6,1,29)
        161         50          4 -3.75579593E-03                    1_GWF-(11,2,28)       5.4202428                     1_GWF-(6,1,29)
        162         51          1     -0.22528400                    1_GWF-(4,18,29)       93.706579                    1_GWF-(4,18,29)
        163         51          2 -2.09026155E-02                    1_GWF-(11,3,26)       43.074840                     1_GWF-(6,3,27)
        164         51          3 -1.68857998E-02                    1_GWF-(11,2,27)       11.616333                     1_GWF-(6,3,27)
        165         51          4 -5.18762101E-03                    1_GWF-(11,2,28)       5.2839084                     1_GWF-(6,1,29)
        166         52          1     -0.15159606                    1_GWF-(4,17,30)       93.582574                    1_GWF-(4,27,31)
        167         52          2 -2.50048211E-02                    1_GWF-(11,3,26)       45.098510                     1_GWF-(6,3,27)
        168         52          3 -1.99313703E-02                    1_GWF-(11,2,27)       17.201726                     1_GWF-(6,4,27)
        169         52          4 -8.85757914E-03                    1_GWF-(11,2,28)       6.1646992                     1_GWF-(6,1,29)
        170         53          1     -0.11334178                    1_GWF-(12,1,20)       156.75287                    1_GWF-(6,11,30)
        171         53          2 -3.99921473E-02                   1_GWF-(11,16,31)       57.078036                    1_GWF-(6,10,31)
        172         53          3 -2.34190353E-02                    1_GWF-(11,9,29)       21.567794                     1_GWF-(6,8,29)
        173         53          4 -1.09724515E-02                    1_GWF-(10,6,28)       9.3721444                     1_GWF-(6,5,28)
        174         53          5 -2.84325760E-03                    1_GWF-(11,2,29)      -5.2583582                    1_GWF-(6,16,32)
        175         54          1     -0.11545514                    1_GWF-(12,1,20)       160.38258                    1_GWF-(6,15,32)
        176         54          2 -4.21732243E-02                   1_GWF-(10,15,31)       63.441681                     1_GWF-(6,8,29)
        177         54          3 -3.22832582E-02                    1_GWF-(10,6,28)      -28.715110                    1_GWF-(5,27,31)
        178         54          4 -1.61004773E-02                    1_GWF-(11,6,29)       20.049124                     1_GWF-(6,3,29)
        179         54          5 -1.10679902E-02                    1_GWF-(11,4,30)      -8.5976041                    1_GWF-(6,16,33)
        180         54          6  3.77446738E-03                   1_GWF-(11,16,33)       9.9033303                    1_GWF-(5,27,31)
        181         55          1     -0.13167025                    1_GWF-(4,26,30)       130.20526                    1_GWF-(6,12,31)
        182         55          2 -4.09093986E-02                    1_GWF-(6,13,32)       66.755424                    1_GWF-(6,12,31)
        183         55          3 -3.79899094E-02                    1_GWF-(6,13,31)      -30.197946                    1_GWF-(6,13,31)
        184         55          4 -1.53004100E-02                    1_GWF-(10,5,29)       18.595366                    1_GWF-(6,10,33)
        185         55          5 -6.75874203E-03                   1_GWF-(11,10,33)       10.297182                    1_GWF-(6,10,33)
        186         56          1     -0.11524670                    1_GWF-(12,1,20)       92.858356                    1_GWF-(4,24,31)
        187         56          2 -4.35117500E-02                    1_GWF-(11,5,26)       73.117132                     1_GWF-(6,8,29)
        188         56          3 -3.82455839E-02                    1_GWF-(11,5,27)       35.380094                     1_GWF-(6,5,28)
        189         56          4 -3.23807666E-02                    1_GWF-(11,5,29)       20.725441                     1_GWF-(6,6,31)
        190         56          5 -8.73382284E-03                    1_GWF-(11,6,31)       11.838148                     1_GWF-(6,6,31)
        191         57          1     -0.10078609                    1_GWF-(12,1,20)       102.28696                    1_GWF-(6,24,32)
        192         57          2 -4.22978480E-02                    1_GWF-(13,6,18)       64.866981                     1_GWF-(6,8,29)
        193         57          3 -3.26317784E-02                    1_GWF-(11,4,27)       37.901422                     1_GWF-(6,5,28)
        194         57          4 -3.51230572E-02                     1_GWF-(6,5,29)      -22.363280                    1_GWF-(6,23,33)
        195         57          5 -1.10725018E-02                    1_GWF-(11,6,31)       11.496812                     1_GWF-(6,7,32)
        196         57          6 -5.33549836E-03                    1_GWF-(11,7,32)      -6.3748161                    1_GWF-(6,17,32)
        197         58          1 -8.33439285E-02                    1_GWF-(12,1,21)       110.56183                    1_GWF-(6,23,33)
        198         58          2 -5.00105342E-02                   1_GWF-(11,23,32)       57.409123                     1_GWF-(6,5,28)
        199         58          3 -3.16991048E-02                    1_GWF-(11,4,27)       32.196110                     1_GWF-(6,5,28)
        200         58          4 -2.90885743E-02                    1_GWF-(11,5,29)      -30.522514                    1_GWF-(6,23,33)
        201         58          5 -6.90794495E-03                    1_GWF-(11,6,31)      -14.871301                    1_GWF-(6,23,33)
        202         59          1 -7.61234898E-02                     1_GWF-(7,1,21)       155.81353                    1_GWF-(6,19,33)
        203         59          2 -8.23789641E-02                   1_GWF-(11,20,34)       92.812405                    1_GWF-(6,18,32)
        204         59          3 -5.17852097E-02                   1_GWF-(11,21,33)       35.047937                    1_GWF-(6,17,33)
        205         59          4 -3.07068117E-02                   1_GWF-(10,18,34)      -32.435564                    1_GWF-(6,22,33)
        206         59          5 -9.67647210E-03                    1_GWF-(11,5,30)      -22.552768                    1_GWF-(6,21,33)
        207         60          1 -9.89880438E-02                    1_GWF-(12,1,21)       136.81760                    1_GWF-(4,27,31)
        208         60          2 -7.42287895E-02                    1_GWF-(13,5,19)       64.921536                    1_GWF-(6,22,33)
        209         60          3 -4.42008521E-02                    1_GWF-(11,5,27)       44.328077                     1_GWF-(6,8,30)
        210         60          4 -4.86884912E-02                    1_GWF-(10,5,29)       27.426384                     1_GWF-(6,4,33)
        211         60          5 -1.63628635E-02                    1_GWF-(11,5,31)      -18.608530                    1_GWF-(6,21,33)
        212         60          6 -9.95908891E-03                    1_GWF-(11,5,31)      -14.160126                    1_GWF-(6,22,33)
        213         61          1 -8.59588546E-02                    1_GWF-(12,1,21)       108.56682                    1_GWF-(4,27,31)
        214         61          2 -6.11123242E-02                    1_GWF-(13,6,19)       76.996089                     1_GWF-(6,8,30)
        215         61          3 -2.97396415E-02                    1_GWF-(11,5,27)       50.546963                     1_GWF-(6,8,30)
        216         61          4 -4.96743444E-02                    1_GWF-(11,4,28)       24.905365                     1_GWF-(6,6,30)
        217         61          5 -1.75546942E-02                    1_GWF-(11,5,30)       16.412474                     1_GWF-(6,5,31)
        218         61          6 -7.78758039E-03                    1_GWF-(11,5,31)      -8.6775111                     1_GWF-(6,4,27)
        219         62          1 -8.23055911E-02                    1_GWF-(12,1,21)       102.33048                    1_GWF-(4,27,31)
        220         62          2 -6.54539363E-02                    1_GWF-(13,6,19)       72.489463                    1_GWF-(6,11,31)
        221         62          3 -3.41891165E-02                    1_GWF-(11,5,27)       47.712947                     1_GWF-(6,8,30)
        222         62          4 -4.97048614E-02                     1_GWF-(6,5,29)       23.944539                     1_GWF-(6,6,30)
        223         62          5 -1.87705775E-02                    1_GWF-(11,5,30)       15.630298                     1_GWF-(6,5,31)
        224         62          6 -8.50318497E-03                    1_GWF-(11,5,31)       9.4290963                     1_GWF-(6,7,33)
        225         63          1 -7.11335119E-02                    1_GWF-(12,1,21)       73.763362                     1_GWF-(7,8,28)
        226         63          2 -7.92079039E-02                    1_GWF-(13,5,20)       76.788953                     1_GWF-(6,8,30)
        227         63          3 -3.47171327E-02                    1_GWF-(11,3,27)       54.479608                     1_GWF-(6,8,30)
        228         63          4 -5.28800126E-02                    1_GWF-(10,4,29)       26.926591                     1_GWF-(6,6,30)
        229         63          5 -1.78088987E-02                    1_GWF-(11,5,31)       14.880747                     1_GWF-(6,5,31)
        230         63          6 -9.51128342E-03                    1_GWF-(11,5,31)       9.5474750                     1_GWF-(6,7,33)
        231         64          1 -6.64696744E-02                    1_GWF-(12,1,21)       106.41215                    1_GWF-(6,25,31)
        232         64          2 -6.80279498E-02                    1_GWF-(13,6,20)       60.592392                     1_GWF-(6,8,30)
        233         64          3 -3.11740376E-02                    1_GWF-(11,3,27)       44.903736                     1_GWF-(6,8,30)
        234         64          4 -4.82043940E-02                     1_GWF-(6,4,29)      -31.480847                    1_GWF-(6,25,31)
        235         64          5 -1.63199405E-02                    1_GWF-(11,4,30)       13.738391                     1_GWF-(6,4,30)
        236         64          6 -7.63508721E-03                    1_GWF-(11,5,31)      -10.856725                    1_GWF-(6,23,33)
        237         65          1 -6.44980512E-02                    1_GWF-(12,1,22)       119.92496                    1_GWF-(6,26,33)
        238         65          2 -8.51819407E-02                    1_GWF-(13,5,20)       69.044454                     1_GWF-(6,8,30)
        239         65          3 -3.13580541E-02                    1_GWF-(11,4,27)       56.873002                     1_GWF-(6,8,30)
        240         65          4 -5.75366202E-02                    1_GWF-(11,4,28)      -29.243695                    1_GWF-(6,26,32)
        241         65          5 -2.16290760E-02                    1_GWF-(11,6,30)      -21.484068                    1_GWF-(6,25,32)
        242         65          6 -1.02340184E-02                    1_GWF-(11,5,30)      -20.254860                    1_GWF-(6,24,33)
        243         65          7  5.58710179E-03                   1_GWF-(12,26,34)      -17.005740                    1_GWF-(6,26,33)
        244         66          1 -7.13258060E-02                    1_GWF-(12,1,21)       57.842521                     1_GWF-(7,8,28)
        245         66          2 -9.64702558E-02                    1_GWF-(13,5,20)       82.895406                     1_GWF-(6,8,30)
        246         66          3 -3.25616190E-02                    1_GWF-(11,4,27)       65.565916                     1_GWF-(6,8,30)
        247         66          4 -6.50245598E-02                    1_GWF-(11,4,28)       38.100783                     1_GWF-(6,5,29)
        248         66          5 -3.18752300E-02                    1_GWF-(11,6,30)       23.591093                     1_GWF-(6,6,30)
        249         66          6 -1.82937218E-02                    1_GWF-(11,5,30)      -17.887513                     1_GWF-(6,6,27)
        250         66          7  7.11079609E-03                   1_GWF-(11,27,15)      -12.858388                     1_GWF-(6,4,27)
        251         67          1 -6.15771817E-02                    1_GWF-(12,1,22)       55.224861                     1_GWF-(7,8,28)
        252         67          2 -7.73505247E-02                    1_GWF-(13,6,20)       73.260802                     1_GWF-(6,8,30)
        253         67          3 -2.82139258E-02                    1_GWF-(11,4,27)       59.472944                     1_GWF-(6,8,30)
        254         67          4 -5.80915932E-02                    1_GWF-(11,4,28)       32.219016                     1_GWF-(6,5,29)
        255         67          5 -3.03176585E-02                    1_GWF-(11,6,30)      -19.990153                     1_GWF-(6,6,27)
        256         67          6 -1.42600858E-02                    1_GWF-(11,5,31)      -14.395839                     1_GWF-(6,6,27)
        257         67          7  6.48965489E-03                   1_GWF-(11,27,15)      -9.9161625                     1_GWF-(6,4,27)
        258         68          1 -5.79614713E-02                    1_GWF-(12,1,22)       51.823597                    1_GWF-(6,12,31)
        259         68          2 -7.84180258E-02                   1_GWF-(13,15,23)       64.559647                     1_GWF-(6,8,30)
        260         68          3 -2.87824648E-02                    1_GWF-(11,4,27)       52.574387                     1_GWF-(6,8,30)
        261         68          4 -5.33835886E-02                    1_GWF-(11,4,28)       32.493084                     1_GWF-(6,5,29)
        262         68          5 -2.95473041E-02                     1_GWF-(6,5,30)       20.361638                     1_GWF-(6,6,30)
        263         68          6 -1.60388380E-02                    1_GWF-(11,4,30)      -15.292039                     1_GWF-(6,6,27)
        264         68          7  9.13953531E-03                   1_GWF-(10,27,16)      -10.952713                     1_GWF-(6,4,27)
        265         69          1 -5.21305450E-02                    1_GWF-(12,1,22)       47.234438                     1_GWF-(7,8,28)
        266         69          2 -7.30027391E-02                   1_GWF-(13,15,23)       60.193585                     1_GWF-(6,8,30)
        267         69          3 -3.07582857E-02                    1_GWF-(11,4,27)       51.088711                     1_GWF-(6,8,30)
        268         69          4 -4.78458179E-02                    1_GWF-(11,4,28)       27.322808                     1_GWF-(6,5,29)
        269         69          5 -3.00192441E-02                    1_GWF-(11,5,30)       16.906750                     1_GWF-(6,6,30)
        270         69          6 -1.51150598E-02                    1_GWF-(11,5,31)      -11.421769                     1_GWF-(7,7,27)
        271         69          7  8.56068898E-03                   1_GWF-(11,27,15)      -7.9430387                    1_GWF-(6,24,33)
        272         70          1 -4.80612051E-02                    1_GWF-(12,1,22)       44.282980                    1_GWF-(6,12,31)
        273         70          2 -7.30492422E-02                   1_GWF-(13,17,24)       52.089252                     1_GWF-(6,9,29)
        274         70          3 -2.69228995E-02                    1_GWF-(11,4,27)       39.354397                     1_GWF-(6,8,30)
        275         70          4 -4.37487219E-02                    1_GWF-(11,4,28)       28.617580                     1_GWF-(6,5,29)
        276         70          5 -2.88268206E-02                    1_GWF-(11,5,30)       19.117554                     1_GWF-(6,6,30)
        277         70          6 -1.61464788E-02                    1_GWF-(11,6,30)      -11.008146                     1_GWF-(7,7,27)
        278         70          7  1.05744393E-02                   1_GWF-(11,27,15)      -7.8066263                     1_GWF-(6,4,27)
        279         70          8 -2.49945053E-03                    1_GWF-(11,6,34)       5.1873711                     1_GWF-(6,4,33)
        280         71          1 -4.49112142E-02                    1_GWF-(12,1,22)       40.231430                    1_GWF-(6,18,32)
        281         71          2 -7.49920704E-02                   1_GWF-(13,17,24)       44.747283                     1_GWF-(6,9,29)
        282         71          3 -2.94269004E-02                    1_GWF-(11,6,27)       32.335449                    1_GWF-(6,11,31)
        283         71          4 -4.03894549E-02                    1_GWF-(11,5,28)       22.266633                     1_GWF-(6,3,29)
        284         71          5 -2.19347844E-02                    1_GWF-(11,5,29)      -17.434641                     1_GWF-(7,7,27)
        285         71          6 -1.74543724E-02                    1_GWF-(11,5,30)       11.125640                    1_GWF-(6,11,33)
        286         71          7 -4.58394288E-03                   1_GWF-(11,10,34)       6.6555621                     1_GWF-(6,9,33)
        287         72          1 -4.04543134E-02                    1_GWF-(12,1,22)       37.449269                    1_GWF-(6,18,32)
        288         72          2 -6.53599340E-02                   1_GWF-(13,18,24)       48.100633                    1_GWF-(6,11,31)
        289         72          3 -2.37162327E-02                    1_GWF-(11,6,27)       34.877467                    1_GWF-(6,11,31)
        290         72          4 -3.93566209E-02                    1_GWF-(11,5,28)       22.774013                     1_GWF-(6,9,31)
        291         72          5 -2.23553811E-02                    1_GWF-(10,5,30)       13.546566                     1_GWF-(6,6,30)
        292         72          6 -1.43573449E-02                    1_GWF-(11,5,30)       9.0186350                     1_GWF-(6,7,33)
        293         72          7  4.27189587E-03                   1_GWF-(10,27,16)       6.8214731                     1_GWF-(6,7,33)
        294         73          1 -3.44919309E-02                    1_GWF-(12,1,22)       38.344383                    1_GWF-(4,15,15)
        295         73          2 -4.24251888E-02                   1_GWF-(13,17,23)       37.797514                     1_GWF-(6,7,29)
        296         73          3 -1.85539413E-02                    1_GWF-(11,2,33)       29.061806                     1_GWF-(6,7,29)
        297         73          4 -2.97614119E-02                    1_GWF-(11,6,29)       17.352810                     1_GWF-(6,6,30)
        298         73          5 -1.39770127E-02                    1_GWF-(11,6,30)       9.7484344                     1_GWF-(6,6,30)
        299         73          6 -6.35743816E-03                    1_GWF-(11,5,31)      -5.2100018                     1_GWF-(6,3,26)
        300         74          1 -5.62573001E-02                    1_GWF-(4,15,15)       34.920145                    1_GWF-(4,15,15)
        301         74          2 -4.14549645E-02                   1_GWF-(13,15,22)       37.403851                     1_GWF-(6,3,33)
        302         74          3 -1.62480152E-02                    1_GWF-(11,3,33)       25.180705                     1_GWF-(6,7,29)
        303         74          4 -2.75082381E-02                    1_GWF-(11,6,29)       13.727274                     1_GWF-(6,5,29)
        304         74          5 -1.22903846E-02                    1_GWF-(11,6,30)       8.1570238                     1_GWF-(6,6,30)
        305         74          6 -5.00175496E-03                    1_GWF-(11,5,31)       4.7653036                     1_GWF-(6,6,32)
        306         75          1 -6.45852175E-02                    1_GWF-(4,15,14)       33.480829                    1_GWF-(4,15,14)
        307         75          2 -3.38487000E-02                   1_GWF-(13,15,22)       30.105089                     1_GWF-(6,3,33)
        308         75          3 -1.60664227E-02                    1_GWF-(11,3,33)       21.447665                     1_GWF-(6,7,29)
        309         75          4 -2.16021534E-02                    1_GWF-(10,4,29)       12.109071                     1_GWF-(6,6,30)
        310         75          5 -9.32274034E-03                    1_GWF-(11,6,30)       7.0767199                     1_GWF-(6,6,30)
        311         76          1 -5.59351671E-02                    1_GWF-(4,15,14)       28.926143                    1_GWF-(6,18,32)
        312         76          2 -4.14117584E-02                   1_GWF-(13,16,23)       35.056871                     1_GWF-(6,3,33)
        313         76          3 -1.49450864E-02                    1_GWF-(11,5,28)       30.310102                     1_GWF-(6,7,29)
        314         76          4 -2.73810667E-02                    1_GWF-(11,4,28)       12.465124                     1_GWF-(6,5,29)
        315         76          5 -1.27376390E-02                    1_GWF-(11,5,30)      -11.945604                     1_GWF-(7,7,27)
        316         76          6 -4.65128567E-03                    1_GWF-(11,5,31)      -6.8901794                     1_GWF-(7,7,27)
        317         77          1 -5.43132399E-02                    1_GWF-(4,15,14)       28.211127                    1_GWF-(6,18,32)
        318         77          2 -3.99934771E-02                   1_GWF-(13,15,22)       27.557351                     1_GWF-(6,3,33)
        319         77          3 -1.43083065E-02                    1_GWF-(11,2,33)       21.108339                     1_GWF-(6,2,28)
        320         77          4 -2.48675862E-02                    1_GWF-(11,5,28)       13.989643                     1_GWF-(6,3,29)
        321         77          5 -1.24925622E-02                    1_GWF-(11,5,30)       8.9691370                     1_GWF-(6,3,29)
        322         77          6 -6.49038009E-03                    1_GWF-(11,5,30)      -5.2864006                     1_GWF-(6,6,27)
        323         78          1 -5.31753318E-02                    1_GWF-(4,14,14)       26.662581                    1_GWF-(6,18,32)
        324         78          2 -4.19167047E-02                   1_GWF-(13,14,22)       32.459713                     1_GWF-(6,3,33)
        325         78          3 -1.41422497E-02                    1_GWF-(11,4,27)       25.552751                     1_GWF-(6,7,29)
        326         78          4 -2.60673418E-02                    1_GWF-(11,4,28)       14.072353                     1_GWF-(6,5,29)
        327         78          5 -1.57858712E-02                    1_GWF-(11,5,30)      -10.785048                     1_GWF-(7,7,27)
        328         78          6 -6.43336609E-03                    1_GWF-(11,5,31)      -6.4883350                     1_GWF-(7,7,27)
        329         79          1 -5.53951254E-02                    1_GWF-(4,14,14)       23.922302                    1_GWF-(6,18,32)
        330         79          2 -3.57482934E-02                   1_GWF-(13,13,21)       25.448143                     1_GWF-(6,3,33)
        331         79          3 -1.35898305E-02                    1_GWF-(11,2,33)       21.654942                     1_GWF-(6,7,29)
        332         79          4 -2.30075969E-02                    1_GWF-(11,5,28)       13.449037                     1_GWF-(6,6,30)
        333         79          5 -1.20049326E-02                    1_GWF-(11,6,30)       8.4009031                     1_GWF-(6,6,30)
        334         79          6 -6.41132444E-03                    1_GWF-(11,5,30)      -5.1178243                     1_GWF-(6,6,27)
        335         80          1 -5.19484206E-02                    1_GWF-(4,14,13)       23.888438                     1_GWF-(7,7,27)
        336         80          2 -3.70583915E-02                   1_GWF-(13,14,22)       28.522892                     1_GWF-(6,3,33)
        337         80          3 -1.40489735E-02                    1_GWF-(11,4,27)       26.253044                     1_GWF-(6,7,29)
        338         80          4 -2.25651836E-02                    1_GWF-(11,7,29)       11.861271                     1_GWF-(6,5,29)
        339         80          5 -1.49360635E-02                    1_GWF-(11,5,30)      -9.4900936                     1_GWF-(7,7,27)
        340         80          6 -6.55728327E-03                    1_GWF-(11,5,31)      -6.0636317                     1_GWF-(7,7,27)
        341         81          1 -5.25772382E-02                    1_GWF-(4,14,13)       21.135424                    1_GWF-(6,12,31)
        342         81          2 -3.31230959E-02                   1_GWF-(13,14,22)       20.528898                     1_GWF-(6,3,33)
        343         81          3 -1.26829350E-02                    1_GWF-(11,2,33)       16.471394                     1_GWF-(6,7,29)
        344         81          4 -2.07514298E-02                    1_GWF-(11,5,28)       12.259529                     1_GWF-(6,3,29)
        345         81          5 -1.10451122E-02                    1_GWF-(11,6,30)       7.5632554                     1_GWF-(6,3,29)
        346         81          6 -6.47945558E-03                    1_GWF-(11,5,30)      -4.8440706                     1_GWF-(6,6,27)
        347         82          1 -5.08744412E-02                    1_GWF-(4,14,13)       20.744122                     1_GWF-(7,7,27)
        348         82          2 -3.05353393E-02                   1_GWF-(13,16,23)       23.075253                     1_GWF-(6,3,33)
        349         82          3 -1.38081781E-02                    1_GWF-(11,4,27)       18.700899                     1_GWF-(6,3,29)
        350         82          4 -1.99821618E-02                    1_GWF-(11,3,29)       9.1161829                     1_GWF-(6,5,29)
        351         82          5 -1.23530140E-02                    1_GWF-(11,5,30)      -7.7160754                     1_GWF-(7,7,27)
        352         82          6 -5.55968952E-03                    1_GWF-(11,6,31)      -5.5320659                     1_GWF-(7,7,27)
        353         83          1 -3.93074095E-02                    1_GWF-(4,13,13)       19.693330                    1_GWF-(6,18,32)
        354         83          2 -3.58377238E-02                   1_GWF-(13,14,22)       18.995784                     1_GWF-(6,3,33)
        355         83          3 -1.27179514E-02                    1_GWF-(11,6,27)       17.936842                     1_GWF-(6,7,29)
        356         83          4 -2.06935423E-02                    1_GWF-(11,5,28)       12.174011                     1_GWF-(6,5,29)
        357         83          5 -1.33301944E-02                    1_GWF-(11,5,29)       9.0217839                     1_GWF-(6,6,30)
        358         83          6 -8.82988456E-03                    1_GWF-(11,6,30)      -5.2431186                   1_GWF-(11,26,15)
        359         84          1 -5.34935729E-02                    1_GWF-(4,13,13)       17.667791                    1_GWF-(6,13,31)
        360         84          2 -2.36070589E-02                   1_GWF-(13,12,20)       19.771347                     1_GWF-(6,3,33)
        361         84          3 -1.15173087E-02                   1_GWF-(11,12,31)       17.698796                     1_GWF-(6,7,29)
        362         84          4 -1.82307719E-02                    1_GWF-(11,5,33)       7.6479076                     1_GWF-(6,5,29)
        363         84          5 -1.03608210E-02                    1_GWF-(11,6,30)      -6.3137178                     1_GWF-(7,7,27)
        364         84          6 -3.98203412E-03                    1_GWF-(11,5,31)      -4.2878355                     1_GWF-(7,7,27)
        365         85          1 -5.13889050E-02                    1_GWF-(4,13,12)       16.436282                    1_GWF-(6,18,31)
        366         85          2 -2.77074330E-02                   1_GWF-(13,11,19)       17.188004                    1_GWF-(6,12,31)
        367         85          3 -1.00734624E-02                    1_GWF-(11,6,27)       14.788995                     1_GWF-(6,7,29)
        368         85          4 -1.66029425E-02                    1_GWF-(11,5,28)       10.455754                     1_GWF-(6,5,29)
        369         85          5 -1.01833086E-02                    1_GWF-(11,5,29)       6.7459276                     1_GWF-(6,5,29)
        370         85          6 -6.98385887E-03                    1_GWF-(11,5,30)      -4.1760708                     1_GWF-(6,6,27)
        371         86          1 -4.73164191E-02                    1_GWF-(4,13,12)       16.489629                     1_GWF-(7,7,27)
        372         86          2 -2.46055452E-02                   1_GWF-(13,11,20)       17.417113                     1_GWF-(6,3,33)
        373         86          3 -1.16569987E-02                    1_GWF-(11,4,27)       14.557551                     1_GWF-(6,3,29)
        374         86          4 -1.66827876E-02                    1_GWF-(11,3,29)       7.7159808                     1_GWF-(6,5,29)
        375         86          5 -1.10462201E-02                    1_GWF-(10,6,30)      -6.1194263                     1_GWF-(7,7,27)
        376         86          6 -5.56646925E-03                    1_GWF-(11,6,31)      -4.4670363                     1_GWF-(7,7,27)
        377         87          1 -4.61821273E-02                    1_GWF-(4,13,12)       14.580134                    1_GWF-(6,14,31)
        378         87          2 -2.45386426E-02                   1_GWF-(13,11,20)       15.897879                     1_GWF-(6,7,29)
        379         87          3 -9.15172411E-03                    1_GWF-(11,6,27)       15.169619                     1_GWF-(6,7,29)
        380         88          1 -3.88710159E-02                    1_GWF-(4,13,11)       17.598822                     1_GWF-(7,7,27)
        381         88          2 -3.27229414E-02                    1_GWF-(13,4,20)      -20.919061                   1_GWF-(11,13,10)
        382         88          3 -3.65981623E-02                    1_GWF-(11,6,27)      -25.700506                   1_GWF-(11,15,10)
        383         88          4  2.56378381E-02                   1_GWF-(13,10,18)      -15.450847                    1_GWF-(11,14,9)
        384         88          5 -1.36419683E-03                    1_GWF-(11,15,9)      -8.7100142                     1_GWF-(7,7,27)
        385         89          1 -4.64047626E-02                    1_GWF-(4,13,11)       12.600813                    1_GWF-(6,18,32)
        386         89          2 -1.67179578E-02                   1_GWF-(13,18,24)       14.480159                     1_GWF-(6,4,33)
        387         89          3 -1.21035569E-02                    1_GWF-(10,7,34)       10.721325                     1_GWF-(6,5,28)
        388         89          4 -1.86029303E-02                     1_GWF-(6,5,33)       7.4774814                     1_GWF-(6,6,29)
        389         89          5 -8.75003871E-03                    1_GWF-(11,7,30)      -4.6125051                     1_GWF-(7,7,27)
        390         90          1 -3.94975813E-02                    1_GWF-(4,13,11)       13.071704                    1_GWF-(6,14,31)
        391         90          2 -1.59295393E-02                   1_GWF-(13,18,25)       13.105905                     1_GWF-(6,4,33)
        392         90          3 -1.27344985E-02                    1_GWF-(11,3,33)       10.296076                     1_GWF-(6,4,29)
        393         90          4 -1.66388075E-02                    1_GWF-(10,4,33)       6.3530564                     1_GWF-(6,4,29)
        394         90          5 -1.06840137E-02                    1_GWF-(11,5,30)      -6.3535809                    1_GWF-(11,16,9)
        395         90          6 -4.93226248E-03                    1_GWF-(11,6,31)      -3.7176071                     1_GWF-(7,7,27)
        396         91          1 -3.31853509E-02                    1_GWF-(4,13,11)       12.519795                    1_GWF-(6,14,31)
        397         91          2 -2.34063593E-02                   1_GWF-(13,17,24)       13.977190                    1_GWF-(6,12,31)
        398         91          3 -1.08368490E-02                    1_GWF-(11,3,33)       12.726699                     1_GWF-(6,5,28)
        399         91          4 -1.66061749E-02                    1_GWF-(11,2,33)       9.5675963                     1_GWF-(6,6,29)
        400         91          5 -9.43894821E-03                    1_GWF-(11,5,29)       7.2011445                     1_GWF-(6,4,29)
        401         92          1 -3.42132176E-02                    1_GWF-(4,12,11)       10.205402                     1_GWF-(6,5,30)
        402         92          2 -1.14584630E-02                   1_GWF-(13,19,25)       10.423979                     1_GWF-(6,8,28)
        403         92          3 -1.13275120E-02                    1_GWF-(11,3,31)       7.8123044                     1_GWF-(6,3,28)
        404         92          4 -1.59948598E-02                    1_GWF-(11,5,32)      -4.4818872                     1_GWF-(7,7,27)
        405         92          5 -5.33966614E-03                    1_GWF-(11,8,31)      -5.2835054                     1_GWF-(7,7,27)
        406         93          1 -4.47400826E-02                    1_GWF-(4,12,11)       10.712916                    1_GWF-(6,14,31)
        407         93          2 -1.22763023E-02                   1_GWF-(13,16,24)       10.335779                    1_GWF-(6,12,31)
        408         93          3 -8.25924380E-03                    1_GWF-(11,3,33)       9.7231245                     1_GWF-(6,5,28)
        409         94          1 -3.47182933E-02                    1_GWF-(4,12,11)       11.056467                     1_GWF-(7,7,27)
        410         94          2 -1.30467594E-02                   1_GWF-(13,11,13)       10.269206                    1_GWF-(6,12,31)
        411         94          3 -2.40045671E-02                    1_GWF-(10,6,27)      -10.963496                    1_GWF-(11,14,9)
        412         94          4  1.27000401E-02                    1_GWF-(13,9,17)      -8.0466084                   1_GWF-(11,16,10)
        413         94          5  3.06155188E-03                   1_GWF-(10,27,17)      -5.4013812                     1_GWF-(7,7,27)
        414         95          1 -3.00549131E-02                    1_GWF-(4,12,10)       9.4449179                    1_GWF-(6,14,31)
        415         95          2 -8.20342645E-03                   1_GWF-(13,17,25)       9.5329001                    1_GWF-(6,12,31)
        416         96          1 -2.53066016E-02                    1_GWF-(4,12,10)       10.721200                    1_GWF-(6,14,31)
        417         96          2 -2.14434492E-02                    1_GWF-(13,8,19)      -19.000068                   1_GWF-(11,20,12)
        418         96          3 -1.61382990E-02                    1_GWF-(11,5,27)      -11.837893                    1_GWF-(11,14,9)
        419         96          4 -5.40834768E-03                    1_GWF-(11,4,29)      -9.1561502                    1_GWF-(11,14,9)
        420         97          1 -3.06029531E-02                    1_GWF-(4,11,10)       10.181006                    1_GWF-(11,18,9)
        421         97          2 -5.22537093E-03                   1_GWF-(13,11,12)       8.5494953                    1_GWF-(6,12,31)
        422         98          1 -2.74863145E-02                    1_GWF-(4,11,10)       10.211714                     1_GWF-(7,7,27)
        423         98          2 -1.71119160E-02                   1_GWF-(13,10,13)      -18.991173                   1_GWF-(11,20,12)
        424         98          3 -1.63924010E-02                    1_GWF-(11,3,27)      -10.233613                     1_GWF-(12,9,7)
        425         98          4 -1.00184114E-02                    1_GWF-(11,4,29)      -7.0188892                     1_GWF-(12,7,7)
        426         98          5  8.30173939E-03                    1_GWF-(13,9,17)      -5.1794451                    1_GWF-(11,15,9)
 --------------------------------------------------------------------------------------------------------------------------------------


1
                            STRESS PERIOD NO.    2, LENGTH =   3287.000
                            -----------------------------------------------

                              NUMBER OF TIME STEPS =    10

                               MULTIPLIER FOR DELT =     1.500

                            INITIAL TIME STEP SIZE =   29.00377

 OUTER ITERATION SUMMARY
 ----------------------------------------------------------------------------------------------------------
                                OUTER      INNER                    STEP   MAXIMUM CHANGE MODEL-(CELLID) OR
 OUTER ITERATION STEP       ITERATION  ITERATION  MAXIMUM CHANGE SUCCESS             MODEL-PACKAGE-(NUMBER)
 ----------------------------------------------------------------------------------------------------------
 Model                              1          4     -0.44750308                           1_GWF-(13,27,15)
 Model                              2          2 -9.08277294E-02       *                     1_GWF-(4,11,9)
 Package                            2                  103.58792                   1_GWF-SFR_0-(311)-inflow
[...]


 2 CALLS TO NUMERICAL SOLUTION IN TIME STEP 2 STRESS PERIOD 18
 4 TOTAL ITERATIONS

 INNER ITERATION SUMMARY
 --------------------------------------------------------------------------------------------------------------------------------------
      TOTAL      OUTER      INNER                                                            MAXIMUM
  ITERATION  ITERATION  ITERATION  MAXIMUM CHANGE      MAXIMUM CHANGE MODEL-(CELLID)        RESIDUAL    MAXIMUM RESIDUAL MODEL-(CELLID)
 --------------------------------------------------------------------------------------------------------------------------------------
          1          1          1      0.15218319                     1_GWF-(2,27,3)      -134.67566                    1_GWF-(12,17,4)
          2          1          2  2.00199335E-02                    1_GWF-(12,17,4)      -17.424090                    1_GWF-(11,19,7)
          3          1          3  3.06596666E-03                    1_GWF-(12,18,6)      -3.0907028                    1_GWF-(11,20,6)
          4          2          1  4.05983964E-04                   1_GWF-(11,27,15)     -0.70790615                    1_GWF-(11,20,6)
 --------------------------------------------------------------------------------------------------------------------------------------



 OUTER ITERATION SUMMARY
 ----------------------------------------------------------------------------------------------------------
                                OUTER      INNER                    STEP   MAXIMUM CHANGE MODEL-(CELLID) OR
 OUTER ITERATION STEP       ITERATION  ITERATION  MAXIMUM CHANGE SUCCESS             MODEL-PACKAGE-(NUMBER)
 ----------------------------------------------------------------------------------------------------------
 Model                              1          3      0.17431614                             1_GWF-(2,27,3)
 Model                              2          1  8.57279925E-04       *                    1_GWF-(11,22,6)
 ----------------------------------------------------------------------------------------------------------


 2 CALLS TO NUMERICAL SOLUTION IN TIME STEP 3 STRESS PERIOD 18
 4 TOTAL ITERATIONS

 INNER ITERATION SUMMARY
 --------------------------------------------------------------------------------------------------------------------------------------
      TOTAL      OUTER      INNER                                                            MAXIMUM
  ITERATION  ITERATION  ITERATION  MAXIMUM CHANGE      MAXIMUM CHANGE MODEL-(CELLID)        RESIDUAL    MAXIMUM RESIDUAL MODEL-(CELLID)
 --------------------------------------------------------------------------------------------------------------------------------------
          1          1          1      0.16034323                     1_GWF-(1,27,3)      -125.53452                    1_GWF-(11,20,7)
          2          1          2  2.92942657E-02                    1_GWF-(12,17,7)      -23.822811                    1_GWF-(11,21,5)
          3          1          3  2.94263867E-03                    1_GWF-(12,18,6)      -5.1498229                    1_GWF-(11,20,6)
          4          2          1  8.57279925E-04                    1_GWF-(11,22,6)     -0.96032125                    1_GWF-(11,20,6)
 --------------------------------------------------------------------------------------------------------------------------------------



 OUTER ITERATION SUMMARY
 ----------------------------------------------------------------------------------------------------------
                                OUTER      INNER                    STEP   MAXIMUM CHANGE MODEL-(CELLID) OR
 OUTER ITERATION STEP       ITERATION  ITERATION  MAXIMUM CHANGE SUCCESS             MODEL-PACKAGE-(NUMBER)
 ----------------------------------------------------------------------------------------------------------
 Model                              1          3      0.20182298                             1_GWF-(1,27,8)
 Model                              2          1  1.66345420E-03       *                    1_GWF-(11,22,7)
 ----------------------------------------------------------------------------------------------------------


 2 CALLS TO NUMERICAL SOLUTION IN TIME STEP 4 STRESS PERIOD 18
 4 TOTAL ITERATIONS

 INNER ITERATION SUMMARY
 --------------------------------------------------------------------------------------------------------------------------------------
      TOTAL      OUTER      INNER                                                            MAXIMUM
  ITERATION  ITERATION  ITERATION  MAXIMUM CHANGE      MAXIMUM CHANGE MODEL-(CELLID)        RESIDUAL    MAXIMUM RESIDUAL MODEL-(CELLID)
 --------------------------------------------------------------------------------------------------------------------------------------
          1          1          1      0.17753043                     1_GWF-(1,27,8)      -117.38702                     1_GWF-(2,27,3)
          2          1          2  4.40016174E-02                    1_GWF-(11,25,7)       47.634336                    1_GWF-(6,25,28)
          3          1          3 -7.52210786E-03                    1_GWF-(13,2,15)      -7.3711967                    1_GWF-(11,20,8)
          4          2          1  1.66345420E-03                    1_GWF-(11,22,7)      -2.5454757                    1_GWF-(11,21,5)
 --------------------------------------------------------------------------------------------------------------------------------------



 OUTER ITERATION SUMMARY
 ----------------------------------------------------------------------------------------------------------
                                OUTER      INNER                    STEP   MAXIMUM CHANGE MODEL-(CELLID) OR
 OUTER ITERATION STEP       ITERATION  ITERATION  MAXIMUM CHANGE SUCCESS             MODEL-PACKAGE-(NUMBER)
 ----------------------------------------------------------------------------------------------------------
 Model                              1          4      0.25164505                             1_GWF-(1,27,8)
 Model                              2          1  1.18277494E-03       *                    1_GWF-(11,21,7)
 ----------------------------------------------------------------------------------------------------------


 2 CALLS TO NUMERICAL SOLUTION IN TIME STEP 5 STRESS PERIOD 18
 5 TOTAL ITERATIONS

 INNER ITERATION SUMMARY
 --------------------------------------------------------------------------------------------------------------------------------------
      TOTAL      OUTER      INNER                                                            MAXIMUM
  ITERATION  ITERATION  ITERATION  MAXIMUM CHANGE      MAXIMUM CHANGE MODEL-(CELLID)        RESIDUAL    MAXIMUM RESIDUAL MODEL-(CELLID)
 --------------------------------------------------------------------------------------------------------------------------------------
          1          1          1      0.18942017                     1_GWF-(1,27,8)      -125.11324                     1_GWF-(2,27,3)
          2          1          2  8.03412220E-02                    1_GWF-(12,17,6)       49.744918                    1_GWF-(11,25,4)
          3          1          3 -2.19174814E-02                    1_GWF-(13,3,16)      -15.858691                    1_GWF-(11,21,7)
          4          1          4  3.58555643E-03                    1_GWF-(11,22,7)      -5.2435087                    1_GWF-(11,21,7)
          5          2          1  1.18277494E-03                    1_GWF-(11,21,7)       2.1816470                     1_GWF-(6,7,29)
 --------------------------------------------------------------------------------------------------------------------------------------


1
                            STRESS PERIOD NO.   19, LENGTH =   183.0000
                            -----------------------------------------------

                              NUMBER OF TIME STEPS =     5

                               MULTIPLIER FOR DELT =     1.500

                            INITIAL TIME STEP SIZE =   13.87678

 OUTER ITERATION SUMMARY
 ----------------------------------------------------------------------------------------------------------
                                OUTER      INNER                    STEP   MAXIMUM CHANGE MODEL-(CELLID) OR
 OUTER ITERATION STEP       ITERATION  ITERATION  MAXIMUM CHANGE SUCCESS             MODEL-PACKAGE-(NUMBER)
 ----------------------------------------------------------------------------------------------------------
 Model                              1          3     -0.20657602                             1_GWF-(1,27,3)
 Model                              2          1 -3.61228458E-04       *                   1_GWF-(11,27,15)
 ----------------------------------------------------------------------------------------------------------


 2 CALLS TO NUMERICAL SOLUTION IN TIME STEP 1 STRESS PERIOD 19
 4 TOTAL ITERATIONS

 INNER ITERATION SUMMARY
 --------------------------------------------------------------------------------------------------------------------------------------
      TOTAL      OUTER      INNER                                                            MAXIMUM
  ITERATION  ITERATION  ITERATION  MAXIMUM CHANGE      MAXIMUM CHANGE MODEL-(CELLID)        RESIDUAL    MAXIMUM RESIDUAL MODEL-(CELLID)
 --------------------------------------------------------------------------------------------------------------------------------------
          1          1          1     -0.19852393                     1_GWF-(1,27,3)       150.77647                    1_GWF-(11,18,8)
          2          1          2 -3.52781260E-02                   1_GWF-(11,27,14)      -19.517661                    1_GWF-(12,14,4)
          3          1          3  3.67042866E-03                   1_GWF-(11,27,14)       1.4521788                    1_GWF-(6,21,30)
          4          2          1 -3.61228458E-04                   1_GWF-(11,27,15)      0.32380894                   1_GWF-(11,26,14)
 --------------------------------------------------------------------------------------------------------------------------------------



 OUTER ITERATION SUMMARY
 ----------------------------------------------------------------------------------------------------------
                                OUTER      INNER                    STEP   MAXIMUM CHANGE MODEL-(CELLID) OR
 OUTER ITERATION STEP       ITERATION  ITERATION  MAXIMUM CHANGE SUCCESS             MODEL-PACKAGE-(NUMBER)
 ----------------------------------------------------------------------------------------------------------
 Model                              1          3     -0.23497435                             1_GWF-(2,27,3)
 Model                              2          1 -8.34455023E-04       *                   1_GWF-(11,27,15)
 ----------------------------------------------------------------------------------------------------------


 2 CALLS TO NUMERICAL SOLUTION IN TIME STEP 2 STRESS PERIOD 19
 4 TOTAL ITERATIONS

 INNER ITERATION SUMMARY
 --------------------------------------------------------------------------------------------------------------------------------------
      TOTAL      OUTER      INNER                                                            MAXIMUM
  ITERATION  ITERATION  ITERATION  MAXIMUM CHANGE      MAXIMUM CHANGE MODEL-(CELLID)        RESIDUAL    MAXIMUM RESIDUAL MODEL-(CELLID)
 --------------------------------------------------------------------------------------------------------------------------------------
          1          1          1     -0.22461772                     1_GWF-(2,27,3)       168.43695                    1_GWF-(11,20,7)
          2          1          2 -3.06698636E-02                   1_GWF-(10,27,15)       22.900871                    1_GWF-(6,24,29)
          3          1          3 -3.98468363E-03                   1_GWF-(11,27,15)       4.2373343                    1_GWF-(6,23,30)
          4          2          1 -8.34455023E-04                   1_GWF-(11,27,15)      0.91086003                    1_GWF-(6,23,30)
 --------------------------------------------------------------------------------------------------------------------------------------



 OUTER ITERATION SUMMARY
 ----------------------------------------------------------------------------------------------------------
                                OUTER      INNER                    STEP   MAXIMUM CHANGE MODEL-(CELLID) OR
 OUTER ITERATION STEP       ITERATION  ITERATION  MAXIMUM CHANGE SUCCESS             MODEL-PACKAGE-(NUMBER)
 ----------------------------------------------------------------------------------------------------------
 Model                              1          3     -0.26838177                             1_GWF-(2,27,3)
 Model                              2          1 -1.30121986E-03       *                   1_GWF-(11,24,31)
 ----------------------------------------------------------------------------------------------------------


 2 CALLS TO NUMERICAL SOLUTION IN TIME STEP 3 STRESS PERIOD 19
 4 TOTAL ITERATIONS

 INNER ITERATION SUMMARY
 --------------------------------------------------------------------------------------------------------------------------------------
      TOTAL      OUTER      INNER                                                            MAXIMUM
  ITERATION  ITERATION  ITERATION  MAXIMUM CHANGE      MAXIMUM CHANGE MODEL-(CELLID)        RESIDUAL    MAXIMUM RESIDUAL MODEL-(CELLID)
 --------------------------------------------------------------------------------------------------------------------------------------
          1          1          1     -0.25800517                     1_GWF-(2,27,3)       173.87352                   1_GWF-(11,26,14)
          2          1          2 -4.77674336E-02                   1_GWF-(10,27,15)      -53.946041                   1_GWF-(11,27,14)
          3          1          3 -6.34911689E-03                   1_GWF-(13,16,19)       5.0464579                    1_GWF-(6,24,31)
          4          2          1 -1.30121986E-03                   1_GWF-(11,24,31)       1.4482805                    1_GWF-(6,25,28)
 --------------------------------------------------------------------------------------------------------------------------------------



 OUTER ITERATION SUMMARY
 ----------------------------------------------------------------------------------------------------------
                                OUTER      INNER                    STEP   MAXIMUM CHANGE MODEL-(CELLID) OR
 OUTER ITERATION STEP       ITERATION  ITERATION  MAXIMUM CHANGE SUCCESS             MODEL-PACKAGE-(NUMBER)
 ----------------------------------------------------------------------------------------------------------
 Model                              1          4     -0.31608156                             1_GWF-(2,27,3)
 Model                              2          1 -1.06304461E-03       *                   1_GWF-(11,24,32)
 ----------------------------------------------------------------------------------------------------------


 2 CALLS TO NUMERICAL SOLUTION IN TIME STEP 4 STRESS PERIOD 19
 5 TOTAL ITERATIONS

 INNER ITERATION SUMMARY
 --------------------------------------------------------------------------------------------------------------------------------------
      TOTAL      OUTER      INNER                                                            MAXIMUM
  ITERATION  ITERATION  ITERATION  MAXIMUM CHANGE      MAXIMUM CHANGE MODEL-(CELLID)        RESIDUAL    MAXIMUM RESIDUAL MODEL-(CELLID)
 --------------------------------------------------------------------------------------------------------------------------------------
          1          1          1     -0.28835134                     1_GWF-(1,27,3)       211.72520                   1_GWF-(11,26,14)
          2          1          2 -8.41566027E-02                   1_GWF-(11,27,15)      -115.87024                   1_GWF-(11,26,15)
          3          1          3 -2.49210189E-02                   1_GWF-(13,16,18)      -22.415334                   1_GWF-(11,26,13)
          4          1          4  3.35890789E-03                   1_GWF-(13,22,18)       4.9800664                    1_GWF-(6,24,32)
          5          2          1 -1.06304461E-03                   1_GWF-(11,24,32)       2.0376870                    1_GWF-(6,24,32)
 --------------------------------------------------------------------------------------------------------------------------------------



 OUTER ITERATION SUMMARY
 ----------------------------------------------------------------------------------------------------------
                                OUTER      INNER                    STEP   MAXIMUM CHANGE MODEL-(CELLID) OR
 OUTER ITERATION STEP       ITERATION  ITERATION  MAXIMUM CHANGE SUCCESS             MODEL-PACKAGE-(NUMBER)
 ----------------------------------------------------------------------------------------------------------
 Model                              1          5     -0.38763343                             1_GWF-(2,27,3)
 Model                              2          1 -1.79985598E-03       *                   1_GWF-(11,24,33)
 ----------------------------------------------------------------------------------------------------------


 2 CALLS TO NUMERICAL SOLUTION IN TIME STEP 5 STRESS PERIOD 19
 6 TOTAL ITERATIONS

 INNER ITERATION SUMMARY
 --------------------------------------------------------------------------------------------------------------------------------------
      TOTAL      OUTER      INNER                                                            MAXIMUM
  ITERATION  ITERATION  ITERATION  MAXIMUM CHANGE      MAXIMUM CHANGE MODEL-(CELLID)        RESIDUAL    MAXIMUM RESIDUAL MODEL-(CELLID)
 --------------------------------------------------------------------------------------------------------------------------------------
          1          1          1     -0.30868188                     1_GWF-(2,27,3)       248.92488                   1_GWF-(11,26,14)
          2          1          2     -0.16167150                   1_GWF-(11,27,14)      -202.00432                   1_GWF-(11,26,15)
          3          1          3     -0.11620341                   1_GWF-(13,17,18)      -199.19283                   1_GWF-(11,26,13)
          4          1          4  6.66028797E-02                   1_GWF-(13,17,18)       7.2695901                    1_GWF-(6,24,32)
          5          1          5 -2.55837417E-03                   1_GWF-(11,25,33)       3.1414318                    1_GWF-(6,25,33)
          6          2          1 -1.79985598E-03                   1_GWF-(11,24,33)       1.5092432                    1_GWF-(6,24,29)
 --------------------------------------------------------------------------------------------------------------------------------------



 MEMORY MANAGER TOTAL STORAGE BY DATA TYPE, IN MEGABYTES
 -------------------------------
                    ALLOCATED
 DATA TYPE           MEMORY
 -------------------------------
 Character        3.01130000E-02
 Logical          4.40000000E-05
 Integer          3.5762320
 Real             5.9702560
 -------------------------------
 Total            9.5766450
 -------------------------------



 Run end date and time (yyyy/mm/dd hh:mm:ss): 2021/06/21  9:47:44
 Elapsed run time:  5.488 Seconds

WARNING REPORT:

  1. SFR Package SFR_0 has 2 reach(es) with zero connections.
  2. NONLINEAR BLOCK VARIABLE 'OUTER_HCLOSE' IN FILE 'mfsim.ims' WAS
     DEPRECATED IN VERSION 6.1.1. SETTING OUTER_DVCLOSE TO OUTER_HCLOSE VALUE.
  3. NONLINEAR BLOCK VARIABLE 'OUTER_RCLOSEBND' IN FILE 'mfsim.ims' WAS
     DEPRECATED IN VERSION 6.1.1. OUTER_DVCLOSE IS USED TO EVALUATE PACKAGE
     CONVERGENCE.
  4. LINEAR BLOCK VARIABLE 'INNER_HCLOSE' IN FILE 'mfsim.ims' WAS DEPRECATED
     IN VERSION 6.1.1. SETTING INNER_DVCLOSE TO INNER_HCLOSE VALUE.
 Normal termination of simulation.
