                                   MODFLOW 6
                U.S. GEOLOGICAL SURVEY MODULAR HYDROLOGIC MODEL
                            VERSION 6.1.0 12/12/2019

   MODFLOW 6 compiled Dec 13 2019 12:29:49 with IFORT compiler (ver. 19.0.5)

This software has been approved for release by the U.S. Geological 
Survey (USGS). Although the software has been subjected to rigorous 
review, the USGS reserves the right to update the software as needed 
pursuant to further analysis and review. No warranty, expressed or 
implied, is made by the USGS or the U.S. Government as to the 
functionality of the software and related material nor shall the 
fact of release constitute any such warranty. Furthermore, the 
software is released on condition that neither the USGS nor the U.S. 
Government shall be held liable for any damages resulting from its 
authorized or unauthorized use. Also refer to the USGS Water 
Resources Software User Rights Notice for complete use, copyright, 
and distribution information.


System command used to initiate simulation:
mf6

MODFLOW was compiled using uniform precision.
Real Variables
  PRECISION: 15
  KIND: 8
  TINY (smallest non-zero value):    2.225074-308
  HUGE (largest value):    1.797693+308
Integer Variables
  KIND: 4
  HUGE (largest value): 2147483647
  BIT_SIZE: 32
 

 OPENED mfsim.nam
 FILE TYPE:NAM   UNIT 1001   STATUS:OLD                 
 FORMAT:FORMATTED              ACCESS:SEQUENTIAL          
 ACTION:READ                


 READING SIMULATION OPTIONS
 END OF SIMULATION OPTIONS

 READING SIMULATION TIMING

 OPENED mfsim.tdis
 FILE TYPE:TDIS   UNIT 1002   STATUS:OLD                 
 FORMAT:FORMATTED              ACCESS:SEQUENTIAL          
 ACTION:READ                


 TDIS -- TEMPORAL DISCRETIZATION PACKAGE,
 VERSION 1 : 11/13/2014 - INPUT READ FROM UNIT 1002
 PROCESSING TDIS OPTIONS
    SIMULATION TIME UNIT IS DAYS
    SIMULATION STARTING DATE AND TIME IS 1998-04-01                    
 END OF TDIS OPTIONS
 PROCESSING TDIS DIMENSIONS
   19 STRESS PERIOD(S) IN SIMULATION
 END OF TDIS DIMENSIONS
 PROCESSING TDIS PERIODDATA


 STRESS PERIOD     LENGTH       TIME STEPS     MULTIPLIER FOR DELT
 ----------------------------------------------------------------------------
        1         1.000000          1                    1.000
        2         3287.000         10                    1.500
        3         183.0000          5                    1.500
        4         183.0000          5                    1.500
        5         183.0000          5                    1.500
        6         182.0000          5                    1.500
        7         183.0000          5                    1.500
        8         182.0000          5                    1.500
        9         183.0000          5                    1.500
       10         182.0000          5                    1.500
       11         183.0000          5                    1.500
       12         183.0000          5                    1.500
       13         183.0000          5                    1.500
       14         182.0000          5                    1.500
       15         183.0000          5                    1.500
       16         182.0000          5                    1.500
       17         183.0000          5                    1.500
       18         182.0000          5                    1.500
       19         183.0000          5                    1.500
 END OF TDIS PERIODDATA
 END OF SIMULATION TIMING

 READING SIMULATION MODELS
    GWF6 model SHELLMOUND will be created as model 1
 END OF SIMULATION MODELS

 READING SIMULATION EXCHANGES
 END OF SIMULATION EXCHANGES

 READING SOLUTIONGROUP

 Creating solution: SLN_1           

 OPENED mfsim.ims
 FILE TYPE:IMS   UNIT 1014   STATUS:OLD                 
 FORMAT:FORMATTED              ACCESS:SEQUENTIAL          
 ACTION:READ                

 END OF SIMULATION SOLUTIONGROUP

 IMS -- ITERATIVE MODEL SOLUTION PACKAGE, VERSION 6, 4/28/2017
         INPUT READ FROM UNIT 1014

 PROCESSING IMS OPTIONS
 MODERATE OPTION:
 DEFAULT SOLVER INPUT VALUES REFLECT MODERETELY NONLINEAR MODEL
 END OF IMS OPTIONS

 PROCESSING IMS NONLINEAR
 END OF IMS NONLINEAR DATA
 **UNDER-RELAXATION WILL BE USED***
 
 ***IMS LINEAR SOLVER WILL BE USED***

 IMSLINEAR -- UNSTRUCTURED LINEAR SOLUTION PACKAGE, VERSION 8, 04/28/2017

 PROCESSING LINEAR DATA
 END OF LINEAR DATA
 
 OUTER ITERATION CONVERGENCE CRITERION     (HCLOSE) =    0.100000E+00
 OUTER ITERATION BOUNDARY FLOW RESIDUAL (RCLOSEBND) =    0.100000E+05
 MAXIMUM NUMBER OF OUTER ITERATIONS        (MXITER) =       200
 SOLVER PRINTOUT INDEX                     (IPRIMS) =         2
 NONLINEAR ITERATION METHOD            (NONLINMETH) =         3
 LINEAR SOLUTION METHOD                   (LINMETH) =         1
 UNDER-RELAXATION WEIGHT REDUCTION FACTOR   (THETA) =    0.700000E+00
 UNDER-RELAXATION WEIGHT INCREASE INCREMENT (KAPPA) =    0.100000E+00
 UNDER-RELAXATION PREVIOUS HISTORY FACTOR   (GAMMA) =    0.000000E+00
 UNDER-RELAXATIONMOMENTUM TERM          (AMOMENTUM) =    0.000000E+00
    MAXIMUM NUMBER OF BACKTRACKS         (NUMTRACK) =         0

       SOLUTION BY THE BICONJUGATE-GRADIENT STABILIZED METHOD
 ------------------------------------------------------------------
 MAXIMUM OF    200 CALLS OF SOLUTION ROUTINE
 MAXIMUM OF    100 INTERNAL ITERATIONS PER CALL TO SOLUTION ROUTINE
 LINEAR ACCELERATION METHOD            = BCGS      
 MATRIX PRECONDITIONING TYPE           = INCOMPLETE LUT      
 MATRIX SCALING APPROACH               = NO SCALING          
 MATRIX REORDERING APPROACH            = ORIGINAL ORDERING        
 NUMBER OF ORTHOGONALIZATIONS          =        0
 HEAD CHANGE CRITERION FOR CLOSURE     =    0.10000E-01
 RESIDUAL CHANGE CRITERION FOR CLOSURE =    0.10000E-03
 RESIDUAL CONVERGENCE OPTION           =        3
 RESIDUAL CONVERGENCE NORM             = RELATIVE L2NORM 
 RELAXATION FACTOR                     =    0.00000E+00
 NUMBER OF LEVELS                      =              7
 DROP TOLERANCE                        =    0.10000E-02


1
                            STRESS PERIOD NO.    1, LENGTH =   1.000000    
                            -----------------------------------------------

                              NUMBER OF TIME STEPS =     1

                               MULTIPLIER FOR DELT =     1.000

                            INITIAL TIME STEP SIZE =   1.000000    



 PSEUDO-TRANSIENT CONTINUATION WILL BE APPLIED TO MODEL 1 ("SHELLMOUND") DURING THIS TIME STEP


 OUTER ITERATION SUMMARY
 ---------------------------------------------------------------------------------------
                       OUTER     INNER         MAXIMUM                    MAXIMUM CHANGE
                   ITERATION ITERATION          CHANGE                    MODEL-(CELLID)
 ---------------------------------------------------------------------------------------
 Linear Solver             1         2   -0.807359                        1_GWF-(1,22,3)
 Under-relaxation          1             -0.807359                        1_GWF-(1,22,3)
 Linear Solver             2         2   -0.958808                        1_GWF-(3,22,3)
 Under-relaxation          2             -0.958808                        1_GWF-(3,22,3)
 Linear Solver             3         2   -0.900981                       1_GWF-(12,22,3)
 Under-relaxation          3             -0.900981                       1_GWF-(12,22,3)
 Linear Solver             4         2   -0.857698                       1_GWF-(13,22,3)
 Under-relaxation          4             -0.857698                       1_GWF-(13,22,3)
 Linear Solver             5         2   -0.748390                       1_GWF-(13,22,3)
 Under-relaxation          5             -0.748390                       1_GWF-(13,22,3)
 Linear Solver             6         2   -0.650219                       1_GWF-(13,17,3)
 Under-relaxation          6             -0.650219                       1_GWF-(13,17,3)
 Linear Solver             7         2   -0.620554                       1_GWF-(13,17,3)
 Under-relaxation          7             -0.620554                       1_GWF-(13,17,3)
 Linear Solver             8         2   -0.514618                       1_GWF-(13,17,3)
 Under-relaxation          8             -0.514618                       1_GWF-(13,17,3)
 Linear Solver             9         2   -0.461335                       1_GWF-(13,17,3)
 Under-relaxation          9             -0.461335                       1_GWF-(13,17,3)
 Linear Solver            10         2   -0.435403                      1_GWF-(13,27,33)
 Under-relaxation         10             -0.435403                      1_GWF-(13,27,33)
 Linear Solver            11         3   -0.431217                      1_GWF-(13,27,33)
 Under-relaxation         11             -0.431217                      1_GWF-(13,27,33)
 Linear Solver            12         3   -0.417609                       1_GWF-(13,19,3)
 Under-relaxation         12             -0.417609                       1_GWF-(13,19,3)
 Linear Solver            13         3   -0.385860                       1_GWF-(13,19,3)
 Under-relaxation         13             -0.385860                       1_GWF-(13,19,3)
 Linear Solver            14         3   -0.331865                       1_GWF-(13,19,3)
 Under-relaxation         14             -0.331865                       1_GWF-(13,19,3)
 Linear Solver            15         3   -0.413879                       1_GWF-(13,19,3)
 Under-relaxation         15             -0.413879                       1_GWF-(13,19,3)
 Linear Solver            16         3   -0.368459                        1_GWF-(13,1,9)
 Under-relaxation         16             -0.368459                        1_GWF-(13,1,9)
 Linear Solver            17         3   -0.348029                        1_GWF-(13,1,9)
 Under-relaxation         17             -0.348029                        1_GWF-(13,1,9)
 Linear Solver            18         3   -0.334960                        1_GWF-(13,6,6)
 Under-relaxation         18             -0.334960                        1_GWF-(13,6,6)
 Linear Solver            19         3   -0.327219                         1_GWF-(4,7,6)
 Under-relaxation         19             -0.327219                         1_GWF-(4,7,6)
 Linear Solver            20         3   -0.350418                        1_GWF-(13,7,6)
 Under-relaxation         20             -0.350418                        1_GWF-(13,7,6)
 Linear Solver            21         3   -0.340168                        1_GWF-(13,7,6)
 Under-relaxation         21             -0.340168                        1_GWF-(13,7,6)
 Linear Solver            22         3   -0.330895                         1_GWF-(4,7,7)
 Under-relaxation         22             -0.330895                         1_GWF-(4,7,7)
 Linear Solver            23         3   -0.312490                         1_GWF-(4,7,7)
 Under-relaxation         23             -0.312490                         1_GWF-(4,7,7)
 Linear Solver            24         3   -0.325855                        1_GWF-(13,3,3)
 Under-relaxation         24             -0.325855                        1_GWF-(13,3,3)
 Linear Solver            25         3   -0.325141                        1_GWF-(13,2,3)
 Under-relaxation         25             -0.325141                        1_GWF-(13,2,3)
 Linear Solver            26         3   -0.338816                        1_GWF-(13,2,3)
 Under-relaxation         26             -0.338816                        1_GWF-(13,2,3)
 Linear Solver            27         3   -0.352757                        1_GWF-(13,1,3)
 Under-relaxation         27             -0.352757                        1_GWF-(13,1,3)
 Linear Solver            28         3   -0.360168                        1_GWF-(13,1,3)
 Under-relaxation         28             -0.360168                        1_GWF-(13,1,3)
 Linear Solver            29         3   -0.361076                        1_GWF-(13,1,3)
 Under-relaxation         29             -0.361076                        1_GWF-(13,1,3)
 Linear Solver            30         4   -0.351417                        1_GWF-(13,1,3)
 Under-relaxation         30             -0.351417                        1_GWF-(13,1,3)
 Linear Solver            31         4   -0.341823                        1_GWF-(13,1,3)
 Under-relaxation         31             -0.341823                        1_GWF-(13,1,3)
 Linear Solver            32         4   -0.326724                        1_GWF-(13,1,3)
 Under-relaxation         32             -0.326724                        1_GWF-(13,1,3)
 Linear Solver            33         4   -0.308381                        1_GWF-(13,1,3)
 Under-relaxation         33             -0.308381                        1_GWF-(13,1,3)
 Linear Solver            34         1   -4.508565E-03                   1_GWF-(4,18,14)
 Under-relaxation         34             -4.508565E-03                   1_GWF-(4,18,14)
 Linear Solver            35         5   -0.398261                        1_GWF-(13,1,3)
 Under-relaxation         35             -0.398261                        1_GWF-(13,1,3)
 Linear Solver            36         3   -0.135056                        1_GWF-(13,1,3)
 Under-relaxation         36             -0.135056                        1_GWF-(13,1,3)
 Linear Solver            37         3   -0.130534                        1_GWF-(13,1,3)
 Under-relaxation         37             -0.130534                        1_GWF-(13,1,3)
 Linear Solver            38         3   -0.154861                        1_GWF-(13,1,3)
 Under-relaxation         38             -0.154861                        1_GWF-(13,1,3)
 Linear Solver            39         4   -0.186656                       1_GWF-(13,1,21)
 Under-relaxation         39             -0.186656                       1_GWF-(13,1,21)
 Linear Solver            40         4   -0.225071                       1_GWF-(13,1,21)
 Under-relaxation         40             -0.225071                       1_GWF-(13,1,21)
 Linear Solver            41         4   -0.227599                       1_GWF-(13,1,21)
 Under-relaxation         41             -0.227599                       1_GWF-(13,1,21)
 Linear Solver            42         4   -0.214524                       1_GWF-(13,1,21)
 Under-relaxation         42             -0.214524                       1_GWF-(13,1,21)
 Linear Solver            43         4   -0.209684                       1_GWF-(13,1,21)
 Under-relaxation         43             -0.209684                       1_GWF-(13,1,21)
 Linear Solver            44         4   -0.200683                       1_GWF-(13,1,20)
 Under-relaxation         44             -0.200683                       1_GWF-(13,1,20)
 Linear Solver            45         4   -0.193546                       1_GWF-(13,1,20)
 Under-relaxation         45             -0.193546                       1_GWF-(13,1,20)
 Linear Solver            46         4   -0.183919                       1_GWF-(13,1,20)
 Under-relaxation         46             -0.183919                       1_GWF-(13,1,20)
 Linear Solver            47         4   -0.172380                       1_GWF-(13,1,20)
 Under-relaxation         47             -0.172380                       1_GWF-(13,1,20)
 Linear Solver            48         4   -0.190454                       1_GWF-(4,21,30)
 Under-relaxation         48             -0.190454                       1_GWF-(4,21,30)
 Linear Solver            49         4   -0.278917                       1_GWF-(4,22,29)
 Under-relaxation         49             -0.278917                       1_GWF-(4,22,29)
 Linear Solver            50         4   -0.220335                       1_GWF-(4,22,28)
 Under-relaxation         50             -0.220335                       1_GWF-(4,22,28)
 Linear Solver            51         4   -0.262974                       1_GWF-(4,20,27)
 Under-relaxation         51             -0.262974                       1_GWF-(4,20,27)
 Linear Solver            52         4   -0.241333                       1_GWF-(4,19,28)
 Under-relaxation         52             -0.241333                       1_GWF-(4,19,28)
 Linear Solver            53         4   -0.176108                       1_GWF-(4,18,29)
 Under-relaxation         53             -0.176108                       1_GWF-(4,18,29)
 Linear Solver            54         4   -0.164809                       1_GWF-(4,16,30)
 Under-relaxation         54             -0.164809                       1_GWF-(4,16,30)
 Linear Solver            55         5   -0.144884                       1_GWF-(4,15,31)
 Under-relaxation         55             -0.144884                       1_GWF-(4,15,31)
 Linear Solver            56         4   -0.129778                       1_GWF-(4,14,32)
 Under-relaxation         56             -0.129778                       1_GWF-(4,14,32)
 Linear Solver            57         5   -0.161958                       1_GWF-(4,13,32)
 Under-relaxation         57             -0.161958                       1_GWF-(4,13,32)
 Linear Solver            58         5   -0.138705                       1_GWF-(13,1,21)
 Under-relaxation         58             -0.138705                       1_GWF-(13,1,21)
 Linear Solver            59         5   -0.129043                       1_GWF-(13,1,22)
 Under-relaxation         59             -0.129043                       1_GWF-(13,1,22)
 Linear Solver            60         5   -0.151136                       1_GWF-(4,23,33)
 Under-relaxation         60             -0.151136                       1_GWF-(4,23,33)
 Linear Solver            61         3   -0.153617                       1_GWF-(4,20,34)
 Under-relaxation         61             -0.153617                       1_GWF-(4,20,34)
 Linear Solver            62         6   -0.204452                      1_GWF-(12,20,34)
 Under-relaxation         62             -0.204452                      1_GWF-(12,20,34)
 Linear Solver            63         6   -0.160038                       1_GWF-(11,2,29)
 Under-relaxation         63             -0.160038                       1_GWF-(11,2,29)
 Linear Solver            64         6   -0.160138                       1_GWF-(10,1,34)
 Under-relaxation         64             -0.160138                       1_GWF-(10,1,34)
 Linear Solver            65         6   -0.165664                       1_GWF-(13,1,34)
 Under-relaxation         65             -0.165664                       1_GWF-(13,1,34)
 Linear Solver            66         6   -0.156717                       1_GWF-(13,1,34)
 Under-relaxation         66             -0.156717                       1_GWF-(13,1,34)
 Linear Solver            67         7   -0.174572                       1_GWF-(13,1,34)
 Under-relaxation         67             -0.174572                       1_GWF-(13,1,34)
 Linear Solver            68         7   -0.207933                       1_GWF-(13,1,34)
 Under-relaxation         68             -0.207933                       1_GWF-(13,1,34)
 Linear Solver            69         7   -0.186635                       1_GWF-(13,1,34)
 Under-relaxation         69             -0.186635                       1_GWF-(13,1,34)
 Linear Solver            70         7   -0.183740                       1_GWF-(13,1,34)
 Under-relaxation         70             -0.183740                       1_GWF-(13,1,34)
 Linear Solver            71         7   -0.173118                       1_GWF-(13,1,34)
 Under-relaxation         71             -0.173118                       1_GWF-(13,1,34)
 Linear Solver            72         7   -0.163601                       1_GWF-(13,1,34)
 Under-relaxation         72             -0.163601                       1_GWF-(13,1,34)
 Linear Solver            73         7   -0.154419                       1_GWF-(13,1,34)
 Under-relaxation         73             -0.154419                       1_GWF-(13,1,34)
 Linear Solver            74         7   -0.136995                       1_GWF-(13,1,34)
 Under-relaxation         74             -0.136995                       1_GWF-(13,1,34)
 Linear Solver            75         6   -0.103381                       1_GWF-(13,1,34)
 Under-relaxation         75             -0.103381                       1_GWF-(13,1,34)
 Linear Solver            76         6   -9.365836E-02                   1_GWF-(13,1,34)

 76 CALLS TO NUMERICAL SOLUTION IN TIME STEP 1 STRESS PERIOD 1
 302 TOTAL ITERATIONS

 INNER ITERATION SUMMARY
 --------------------------------------------------------------------------------------------------------------------------------
     TOTAL      OUTER     INNER                    MAXIMUM CHANGE        MAXIMUM                  MAXIMUM RESIDUAL        MAXIMUM
 ITERATION  ITERATION ITERATION                    MODEL-(CELLID)         CHANGE                    MODEL-(CELLID)       RESIDUAL
 --------------------------------------------------------------------------------------------------------------------------------
          1         1         1                     1_GWF-(1,1,3) -0.1555261E-01                   1_GWF-(6,18,31)   30.97210    
          2         1         2                     1_GWF-(1,1,3) -0.5931988E-05                   1_GWF-(6,18,31)  0.1253031E-01
          3         2         1                     1_GWF-(1,1,3) -0.4192581E-01                   1_GWF-(6,10,31)   186.8231    
          4         2         2                     1_GWF-(1,1,3) -0.1336839E-03                   1_GWF-(6,10,31)  0.4894792    
          5         3         1                     1_GWF-(1,1,3) -0.4936668E-01                   1_GWF-(6,11,30)   296.3797    
          6         3         2                     1_GWF-(1,1,3) -0.2876588E-03                   1_GWF-(6,10,31)   1.054672    
          7         4         1                     1_GWF-(1,1,3) -0.5182748E-01                   1_GWF-(6,11,30)   301.3495    
          8         4         2                     1_GWF-(1,1,4)  0.4356793E-03                   1_GWF-(6,10,31)   1.484717    
          9         5         1                     1_GWF-(1,1,3) -0.5250075E-01                   1_GWF-(6,11,30)   280.7095    
         10         5         2                     1_GWF-(1,1,3) -0.7546566E-03                   1_GWF-(6,10,31)   1.949489    
         11         6         1                     1_GWF-(1,1,3) -0.4992689E-01                   1_GWF-(6,10,31)   250.9542    
         12         6         2                     1_GWF-(1,1,3) -0.1050113E-02                    1_GWF-(6,8,29)   2.381389    
         13         7         1                     1_GWF-(1,1,3) -0.4902717E-01                   1_GWF-(6,10,31)   248.9032    
         14         7         2                     1_GWF-(1,1,3) -0.1779144E-02                    1_GWF-(6,8,29)   3.808569    
         15         8         1                     1_GWF-(1,1,3) -0.4115458E-01                    1_GWF-(6,2,32)   207.0307    
         16         8         2                     1_GWF-(1,1,3) -0.2093364E-02                    1_GWF-(6,8,29)   4.111145    
         17         9         1                     1_GWF-(1,1,3) -0.3513221E-01                    1_GWF-(6,2,32)   252.5856    
         18         9         2                     1_GWF-(1,1,3) -0.3343700E-02                    1_GWF-(6,8,29)   7.482604    
         19        10         1                     1_GWF-(1,1,3) -0.2394536E-01                    1_GWF-(6,8,29)   261.6061    
         20        10         2                     1_GWF-(1,1,3) -0.3941686E-02                    1_GWF-(6,8,29)   9.017953    
         21        11         1                     1_GWF-(1,1,3) -0.1232521E-01                    1_GWF-(6,8,29)   289.4336    
         22        11         2                     1_GWF-(1,1,3) -0.4925072E-02                    1_GWF-(6,8,29)   12.50911    
         23        11         3                     1_GWF-(1,1,3) -0.6579037E-04                    1_GWF-(7,6,27)  0.6785532    
         24        12         1                     1_GWF-(1,1,3) -0.1114786E-02                    1_GWF-(6,8,29)   290.3427    
         25        12         2                     1_GWF-(1,1,3) -0.5454800E-02                    1_GWF-(6,8,29)   14.66820    
         26        12         3                     1_GWF-(1,1,3) -0.1120724E-03                    1_GWF-(6,8,33)  0.9497627    
         27        13         1                     1_GWF-(1,1,3)  0.5495033E-02                    1_GWF-(6,10,3)   278.1377    
         28        13         2                     1_GWF-(1,1,3) -0.4610929E-02                    1_GWF-(6,8,29)   12.00754    
         29        13         3                     1_GWF-(1,1,3) -0.9227125E-04                    1_GWF-(6,8,33)  0.8097014    
         30        14         1                     1_GWF-(1,1,3)  0.7111633E-02                    1_GWF-(6,10,3)   366.7861    
         31        14         2                     1_GWF-(1,1,3) -0.3382622E-02                    1_GWF-(6,8,29)   8.550977    
         32        14         3                     1_GWF-(1,1,3) -0.4649124E-04                    1_GWF-(6,8,33)  0.5022829    
         33        15         1                     1_GWF-(1,1,3)  0.1040057E-01                    1_GWF-(6,3,32)   280.5891    
         34        15         2                     1_GWF-(1,1,3) -0.7218182E-02                    1_GWF-(6,5,27)   23.95401    
         35        15         3                     1_GWF-(1,1,3) -0.3730675E-03                    1_GWF-(6,8,33)   2.840590    
         36        16         1                     1_GWF-(1,1,3)  0.7342475E-03                   1_GWF-(4,24,31)   275.3115    
         37        16         2                     1_GWF-(1,1,3) -0.6700772E-02                    1_GWF-(6,5,27)   21.82477    
         38        16         3                     1_GWF-(1,1,3) -0.3114593E-03                    1_GWF-(6,8,33)   2.453592    
         39        17         1                     1_GWF-(1,1,3) -0.1552985E-01                   1_GWF-(4,24,31)   302.6419    
         40        17         2                     1_GWF-(1,1,3) -0.7740990E-02                   1_GWF-(6,16,32)   29.55856    
         41        17         3                     1_GWF-(1,1,3) -0.3530924E-03                    1_GWF-(6,8,32)   3.408825    
         42        18         1                     1_GWF-(1,1,3) -0.4003784E-01                   1_GWF-(4,24,31)   317.9272    
         43        18         2                     1_GWF-(1,1,3) -0.8971439E-02                   1_GWF-(6,16,32)   28.78781    
         44        18         3                     1_GWF-(1,1,3) -0.2851909E-03                    1_GWF-(6,8,32)   4.114277    
         45        19         1                     1_GWF-(1,1,3) -0.6970941E-01                  1_GWF-(10,13,26)  -511.3931    
         46        19         2                     1_GWF-(1,1,3) -0.1114131E-01                    1_GWF-(6,4,33)   31.41456    
         47        19         3                     1_GWF-(1,1,3) -0.2433186E-03                    1_GWF-(6,8,32)   4.628100    
         48        20         1                     1_GWF-(1,1,3) -0.1099392                       1_GWF-(4,24,31)   353.3345    
         49        20         2                     1_GWF-(1,1,3) -0.1785639E-01                    1_GWF-(6,4,33)   39.82505    
         50        20         3                     1_GWF-(1,1,3) -0.5076644E-03                    1_GWF-(6,8,33)   7.441298    
         51        21         1                     1_GWF-(1,1,3) -0.1449958                       1_GWF-(4,24,31)   355.8165    
         52        21         2                     1_GWF-(1,1,3) -0.2201887E-01                    1_GWF-(6,6,33)   43.01839    
         53        21         3                     1_GWF-(1,1,3) -0.5254141E-03                    1_GWF-(6,8,33)   8.715565    
         54        22         1                     1_GWF-(1,1,3) -0.1773164                       1_GWF-(9,14,24)  -405.7912    
         55        22         2                     1_GWF-(1,1,3) -0.2591531E-01                    1_GWF-(6,6,33)   44.30165    
         56        22         3                     1_GWF-(1,1,3) -0.5719100E-03                    1_GWF-(6,8,33)   9.486708    
         57        23         1                     1_GWF-(1,1,3) -0.2028422                       1_GWF-(9,14,24)  -602.6085    
         58        23         2                     1_GWF-(1,1,3) -0.2801689E-01                    1_GWF-(6,6,33)   42.77954    
         59        23         3                     1_GWF-(1,1,3) -0.6264973E-03                    1_GWF-(6,8,33)   9.369367    
         60        24         1                     1_GWF-(1,1,3) -0.2458980                       1_GWF-(4,24,31)   332.1428    
         61        24         2                     1_GWF-(1,1,3) -0.4254442E-01                    1_GWF-(6,6,33)   52.09192    
         62        24         3                     1_GWF-(1,1,3) -0.1243722E-02                    1_GWF-(6,6,33)   13.06972    
         63        25         1                     1_GWF-(1,1,3) -0.2657374                       1_GWF-(4,24,31)   319.1005    
         64        25         2                     1_GWF-(1,1,3) -0.4719780E-01                    1_GWF-(6,6,33)   51.14945    
         65        25         3                     1_GWF-(1,1,3) -0.1602364E-02                    1_GWF-(6,6,33)   13.32122    
         66        26         1                     1_GWF-(1,1,3) -0.2823765                       1_GWF-(4,24,31)   309.2689    
         67        26         2                     1_GWF-(1,1,3) -0.5352917E-01                    1_GWF-(6,6,33)   49.58630    
         68        26         3                     1_GWF-(1,1,3) -0.2089169E-02                    1_GWF-(6,9,33)   13.04685    
         69        27         1                     1_GWF-(1,1,3) -0.2911955                       1_GWF-(4,22,13)   304.0361    
         70        27         2                     1_GWF-(1,1,3) -0.5872642E-01                    1_GWF-(6,6,33)   47.47983    
         71        27         3                     1_GWF-(1,1,3) -0.2795778E-02                    1_GWF-(6,9,33)   12.53566    
         72        28         1                     1_GWF-(1,1,3) -0.2933936                       1_GWF-(4,22,13)   300.2582    
         73        28         2                     1_GWF-(1,1,3) -0.6294180E-01                    1_GWF-(6,6,33)   45.90301    
         74        28         3                     1_GWF-(1,1,3) -0.3788659E-02                    1_GWF-(6,8,33)   12.04897    
         75        29         1                     1_GWF-(1,1,3) -0.2896321                       1_GWF-(4,22,13)   290.8592    
         76        29         2                     1_GWF-(1,1,3) -0.6645866E-01                    1_GWF-(6,6,33)   43.93977    
         77        29         3                     1_GWF-(1,1,3) -0.4940381E-02                    1_GWF-(6,8,33)   11.56424    
         78        30         1                     1_GWF-(1,1,3) -0.2793840                       1_GWF-(4,22,13)   267.8492    
         79        30         2                     1_GWF-(1,1,3) -0.6863980E-01                   1_GWF-(11,19,8)   45.38959    
         80        30         3                     1_GWF-(1,1,3) -0.5240316E-02                    1_GWF-(6,8,33)   10.59018    
         81        30         4                     1_GWF-(1,1,3)  0.1891745E-02                     1_GWF-(9,3,4)  -4.877129    
         82        31         1                     1_GWF-(1,1,3) -0.2667381                       1_GWF-(4,22,13)   254.4264    
         83        31         2                     1_GWF-(1,1,3) -0.7078536E-01                   1_GWF-(11,19,8)   49.25746    
         84        31         3                     1_GWF-(1,1,3) -0.6594977E-02                   1_GWF-(11,19,8)   11.10110    
         85        31         4                     1_GWF-(1,1,3)  0.2336355E-02                     1_GWF-(9,3,4)  -5.320581    
         86        32         1                     1_GWF-(1,1,3) -0.2500743                       1_GWF-(4,22,13)   240.2580    
         87        32         2                     1_GWF-(1,1,3) -0.7137544E-01                   1_GWF-(11,18,9)   53.65921    
         88        32         3                     1_GWF-(1,1,3) -0.7976667E-02                   1_GWF-(11,19,8)   11.86619    
         89        32         4                     1_GWF-(1,1,3)  0.2738982E-02                     1_GWF-(9,3,4)  -5.589723    
         90        33         1                     1_GWF-(1,1,3) -0.2308611                       1_GWF-(4,22,13)   227.3286    
         91        33         2                     1_GWF-(1,1,3) -0.7144256E-01                   1_GWF-(11,18,9)   57.48357    
         92        33         3                     1_GWF-(1,1,3) -0.9242129E-02                   1_GWF-(11,19,8)   12.49372    
         93        33         4                     1_GWF-(1,1,3)  0.3196984E-02                     1_GWF-(9,3,4)  -5.304624    
         94        34         1                     1_GWF-(1,1,3) -0.2785292E-02                    1_GWF-(4,1,30)  -80.95430    
         95        35         1                     1_GWF-(1,1,3) -0.2674590                        1_GWF-(7,6,26)   220.3024    
         96        35         2                     1_GWF-(1,1,3) -0.1106823                       1_GWF-(11,19,8)   105.9187    
         97        35         3                     1_GWF-(1,1,3) -0.2882952E-01                   1_GWF-(11,19,8)   28.71994    
         98        35         4                     1_GWF-(1,1,3)  0.8217864E-02                     1_GWF-(9,3,4)  -17.17752    
         99        35         5                     1_GWF-(1,1,3)  0.5326017E-03                   1_GWF-(11,20,7)   3.875242    
        100        36         1                     1_GWF-(1,1,3) -0.1269377                        1_GWF-(9,1,30)   322.8543    
        101        36         2                     1_GWF-(1,1,3) -0.6105823E-02                    1_GWF-(6,1,30)   20.15374    
        102        36         3                     1_GWF-(1,1,3) -0.2002943E-02                    1_GWF-(6,3,32)   2.376243    
        103        37         1                     1_GWF-(1,1,3) -0.1217702                        1_GWF-(9,1,30)   353.2630    
        104        37         2                     1_GWF-(1,1,3) -0.6390364E-02                    1_GWF-(6,1,30)   21.48411    
        105        37         3                     1_GWF-(1,1,3) -0.2362220E-02                    1_GWF-(6,3,32)   2.524207    
        106        38         1                     1_GWF-(1,1,3) -0.1316264                        1_GWF-(9,1,30)   445.7133    
        107        38         2                     1_GWF-(1,1,3) -0.1867036E-01                   1_GWF-(11,18,9)   27.98223    
        108        38         3                     1_GWF-(1,1,3) -0.4552476E-02                    1_GWF-(6,3,32)   3.841602    
        109        39         1                     1_GWF-(1,1,3) -0.1309584                        1_GWF-(9,1,30)   444.0844    
        110        39         2                     1_GWF-(1,1,3) -0.3397082E-01                    1_GWF-(6,2,27)   43.63471    
        111        39         3                     1_GWF-(1,1,3) -0.7876955E-02                     1_GWF-(9,3,4)  -6.102598    
        112        39         4                     1_GWF-(1,1,3)  0.1441613E-02                     1_GWF-(9,2,4)  -3.029412    
        113        40         1                     1_GWF-(1,1,3) -0.1225343                        1_GWF-(9,1,30)   308.3804    
        114        40         2                     1_GWF-(1,1,3) -0.4861062E-01                   1_GWF-(11,20,8)   61.62508    
        115        40         3                     1_GWF-(1,1,3) -0.1358515E-01                   1_GWF-(11,19,8)   10.18751    
        116        40         4                     1_GWF-(1,1,3)  0.2107237E-02                     1_GWF-(9,3,4)  -6.009599    
        117        41         1                     1_GWF-(1,1,3) -0.1035149                       1_GWF-(4,26,17)   207.9650    
        118        41         2                     1_GWF-(1,1,3) -0.4459998E-01                   1_GWF-(11,20,8)   63.08887    
        119        41         3                     1_GWF-(1,1,3) -0.1535214E-01                  1_GWF-(11,26,14)  -10.62222    
        120        41         4                     1_GWF-(1,1,3)  0.2108416E-02                     1_GWF-(9,3,4)  -5.597664    
        121        42         1                     1_GWF-(1,1,3) -0.8438696E-01                   1_GWF-(4,26,18)   185.5858    
        122        42         2                     1_GWF-(1,1,3) -0.3581016E-01                   1_GWF-(11,20,8)   58.54966    
        123        42         3                     1_GWF-(1,1,3) -0.1310264E-01                   1_GWF-(11,19,8)   11.33715    
        124        42         4                     1_GWF-(1,1,3)  0.1988273E-02                     1_GWF-(9,3,4)  -5.272896    
        125        43         1                     1_GWF-(1,1,3) -0.6900181E-01                    1_GWF-(4,6,11)   138.5851    
        126        43         2                     1_GWF-(1,1,3) -0.3043029E-01                   1_GWF-(11,20,8)   56.47625    
        127        43         3                     1_GWF-(1,1,3) -0.1275628E-01                   1_GWF-(11,19,8)   12.06413    
        128        43         4                     1_GWF-(1,1,3)  0.1327814E-02                     1_GWF-(9,3,4)  -5.094208    
        129        44         1                     1_GWF-(1,1,3) -0.5553298E-01                    1_GWF-(6,2,27)   115.0987    
        130        44         2                     1_GWF-(1,1,3) -0.2489661E-01                   1_GWF-(11,20,8)   52.66801    
        131        44         3                     1_GWF-(1,1,3) -0.1150954E-01                   1_GWF-(11,19,8)   11.99229    
        132        44         4                     1_GWF-(1,1,3)  0.7475716E-03                     1_GWF-(9,3,4)  -4.768901    
        133        45         1                     1_GWF-(1,1,3) -0.4448396E-01                    1_GWF-(6,2,27)   108.7907    
        134        45         2                     1_GWF-(1,1,3) -0.2009762E-01                    1_GWF-(6,2,27)   49.57781    
        135        45         3                     1_GWF-(1,1,3) -0.1088885E-01                   1_GWF-(11,20,8)   11.56706    
        136        45         4                     1_GWF-(1,1,3)  0.4256300E-03                     1_GWF-(9,3,4)  -4.473915    
        137        46         1                     1_GWF-(1,1,3) -0.3534355E-01                    1_GWF-(6,2,27)   104.5730    
        138        46         2                     1_GWF-(1,1,3) -0.1616916E-01                    1_GWF-(6,2,27)   50.82636    
        139        46         3                     1_GWF-(1,1,3) -0.9561353E-02                   1_GWF-(11,20,8)   11.47774    
        140        46         4                     1_GWF-(1,1,3) -0.1599598E-03                     1_GWF-(9,3,4)  -3.674031    
        141        47         1                     1_GWF-(1,1,3) -0.2809745E-01                    1_GWF-(6,2,27)   96.63189    
        142        47         2                     1_GWF-(1,1,3) -0.1294565E-01                    1_GWF-(6,2,27)   41.89318    
        143        47         3                     1_GWF-(1,1,3) -0.8079885E-02                   1_GWF-(11,20,8)   10.41287    
        144        47         4                     1_GWF-(1,1,3) -0.3485893E-03                     1_GWF-(9,3,4)  -3.491052    
        145        48         1                     1_GWF-(1,1,3) -0.2108084E-01                   1_GWF-(6,19,31)  -121.8606    
        146        48         2                     1_GWF-(1,1,3) -0.8739903E-02                    1_GWF-(6,2,27)   38.98957    
        147        48         3                     1_GWF-(1,1,3) -0.5324485E-02                   1_GWF-(6,19,31)  -13.83502    
        148        48         4                     1_GWF-(1,1,3) -0.1361251E-03                   1_GWF-(6,19,31)   4.028443    
        149        49         1                     1_GWF-(1,1,3) -0.1786674E-01                   1_GWF-(4,22,29)   128.8123    
        150        49         2                     1_GWF-(1,1,3) -0.7073628E-02                    1_GWF-(6,2,27)   41.39143    
        151        49         3                     1_GWF-(1,1,3) -0.4711265E-02                    1_GWF-(6,2,27)   6.994119    
        152        49         4                     1_GWF-(1,1,3) -0.1980225E-03                    1_GWF-(6,1,28)   2.746285    
        153        50         1                     1_GWF-(1,1,3) -0.1553583E-01                   1_GWF-(4,21,27)   130.1854    
        154        50         2                     1_GWF-(1,1,3) -0.6985120E-02                    1_GWF-(6,2,27)   48.68956    
        155        50         3                     1_GWF-(1,1,3) -0.5318787E-02                    1_GWF-(6,2,27)   9.055853    
        156        50         4                     1_GWF-(1,1,3) -0.4926575E-03                    1_GWF-(6,1,28)   3.537605    
        157        51         1                     1_GWF-(1,1,3) -0.1228061E-01                   1_GWF-(4,20,27)   116.9567    
        158        51         2                     1_GWF-(1,1,3) -0.5344033E-02                    1_GWF-(6,2,27)   44.16002    
        159        51         3                     1_GWF-(1,1,3) -0.4228377E-02                    1_GWF-(6,2,27)   9.588818    
        160        51         4                     1_GWF-(1,1,3) -0.3809845E-03                    1_GWF-(6,1,28)   3.649585    
        161        52         1                     1_GWF-(1,1,3) -0.1003104E-01                   1_GWF-(4,19,28)   83.20692    
        162        52         2                     1_GWF-(1,1,3) -0.4584574E-02                    1_GWF-(6,3,27)   37.31766    
        163        52         3                     1_GWF-(1,1,3) -0.3892701E-02                    1_GWF-(6,4,27)   9.607883    
        164        52         4                     1_GWF-(1,1,3) -0.4754483E-03                    1_GWF-(6,1,28)   3.902600    
        165        53         1                     1_GWF-(1,1,3) -0.8714596E-02                   1_GWF-(4,27,31)   98.68129    
        166        53         2                     1_GWF-(1,1,3) -0.4768798E-02                    1_GWF-(6,3,27)   44.00007    
        167        53         3                     1_GWF-(1,1,3) -0.4074238E-02                    1_GWF-(6,4,27)   14.84060    
        168        53         4                     1_GWF-(1,1,3) -0.1146396E-02                    1_GWF-(6,1,28)   6.000296    
        169        54         1                     1_GWF-(1,1,3) -0.6870418E-02                   1_GWF-(4,27,31)   78.55072    
        170        54         2                     1_GWF-(1,1,3) -0.3996707E-02                    1_GWF-(6,4,27)   46.83051    
        171        54         3                     1_GWF-(1,1,3) -0.3233215E-02                    1_GWF-(6,4,27)   19.61909    
        172        54         4                     1_GWF-(1,1,3) -0.1264561E-02                    1_GWF-(6,1,28)   7.469147    
        173        55         1                     1_GWF-(1,1,3) -0.5727933E-02                   1_GWF-(6,11,30)   133.9530    
        174        55         2                     1_GWF-(1,1,3) -0.4227438E-02                    1_GWF-(6,5,28)   64.33076    
        175        55         3                     1_GWF-(1,1,3) -0.3310250E-02                    1_GWF-(6,5,28)   29.42055    
        176        55         4                     1_GWF-(1,1,3) -0.1545078E-02                    1_GWF-(6,5,28)   15.29293    
        177        55         5                     1_GWF-(1,1,3) -0.1559980E-03                    1_GWF-(6,5,28)   7.253677    
        178        56         1                     1_GWF-(1,1,3) -0.4450007E-02                   1_GWF-(6,14,32)   172.4738    
        179        56         2                     1_GWF-(1,1,3) -0.3972955E-02                    1_GWF-(6,8,29)   54.89345    
        180        56         3                     1_GWF-(1,1,3) -0.4418031E-02                   1_GWF-(5,27,31)  -41.49200    
        181        56         4                     1_GWF-(1,1,3) -0.6187456E-04                    1_GWF-(6,5,30)   18.83655    
        182        57         1                     1_GWF-(1,1,3) -0.3728172E-02                   1_GWF-(6,13,32)   132.8608    
        183        57         2                     1_GWF-(1,1,3) -0.3506716E-02                   1_GWF-(6,15,32)   70.47612    
        184        57         3                     1_GWF-(1,1,3) -0.2434704E-02                    1_GWF-(6,5,28)   32.76518    
        185        57         4                     1_GWF-(1,1,3) -0.1993447E-02                   1_GWF-(6,14,32)  -18.94866    
        186        57         5                     1_GWF-(1,1,3)  0.2605503E-03                    1_GWF-(6,8,33)   10.32389    
        187        58         1                     1_GWF-(1,1,3) -0.3334379E-02                   1_GWF-(4,24,31)   110.1028    
        188        58         2                     1_GWF-(1,1,3) -0.3199270E-02                    1_GWF-(6,8,29)   70.79579    
        189        58         3                     1_GWF-(1,1,3) -0.3238162E-02                    1_GWF-(6,5,28)   31.38095    
        190        58         4                     1_GWF-(1,1,3) -0.1622210E-02                    1_GWF-(6,6,31)   20.29470    
        191        58         5                     1_GWF-(1,1,3) -0.5023236E-04                    1_GWF-(6,6,31)   11.05734    
        192        59         1                     1_GWF-(1,1,3) -0.2455887E-02                   1_GWF-(6,24,32)   124.4664    
        193        59         2                     1_GWF-(1,1,3) -0.2617725E-02                    1_GWF-(6,5,28)   63.15311    
        194        59         3                     1_GWF-(1,1,3) -0.2259119E-02                    1_GWF-(6,5,28)   36.40651    
        195        59         4                     1_GWF-(1,1,3) -0.2061789E-02                   1_GWF-(6,23,33)  -26.92122    
        196        59         5                     1_GWF-(1,1,3)  0.9853002E-04                    1_GWF-(6,4,31)   11.51292    
        197        60         1                     1_GWF-(1,1,3) -0.1729311E-02                   1_GWF-(6,23,33)   142.3172    
        198        60         2                     1_GWF-(1,1,3) -0.2163610E-02                    1_GWF-(6,5,28)   63.41234    
        199        60         3                     1_GWF-(1,1,3) -0.1418668E-02                    1_GWF-(6,5,28)   36.88352    
        200        60         4                     1_GWF-(1,1,3) -0.1953074E-02                   1_GWF-(6,23,33)  -46.45846    
        201        60         5                     1_GWF-(1,1,3) -0.6352341E-04                   1_GWF-(6,22,33)  -36.13077    
        202        61         1                     1_GWF-(1,1,3) -0.1451207E-02                   1_GWF-(6,22,33)   139.6433    
        203        61         2                     1_GWF-(1,1,3) -0.2208833E-02                   1_GWF-(6,18,32)   82.47148    
        204        61         3                     1_GWF-(1,1,3) -0.1206207E-03                   1_GWF-(6,17,32)   67.79274    
        205        62         1                     1_GWF-(1,1,3) -0.1878301E-02                   1_GWF-(6,17,32)   109.7925    
        206        62         2                     1_GWF-(1,1,3) -0.5427399E-02                    1_GWF-(6,8,30)   80.99369    
        207        62         3                     1_GWF-(1,1,3) -0.1808721E-02                    1_GWF-(6,5,29)   53.29186    
        208        62         4                     1_GWF-(1,1,3) -0.2074627E-02                    1_GWF-(6,5,31)   28.20542    
        209        62         5                     1_GWF-(1,1,3)  0.6687669E-03                    1_GWF-(6,5,31)   17.34300    
        210        62         6                     1_GWF-(1,1,3)  0.6715845E-03                    1_GWF-(6,4,33)   15.04494    
        211        63         1                     1_GWF-(1,1,3) -0.1324001E-02                   1_GWF-(4,27,31)   122.0128    
        212        63         2                     1_GWF-(1,1,3) -0.2426632E-02                    1_GWF-(6,8,30)   69.05210    
        213        63         3                     1_GWF-(1,1,3) -0.1997167E-02                    1_GWF-(6,8,30)   44.39297    
        214        63         4                     1_GWF-(1,1,3) -0.2123407E-02                    1_GWF-(6,4,30)   23.65432    
        215        63         5                     1_GWF-(1,1,3) -0.7440312E-04                    1_GWF-(6,6,27)  -15.21409    
        216        63         6                     1_GWF-(1,1,3)  0.6912284E-03                    1_GWF-(6,7,33)   10.94194    
        217        64         1                     1_GWF-(1,1,3) -0.9659649E-03                   1_GWF-(4,27,31)   97.62953    
        218        64         2                     1_GWF-(1,1,3) -0.1785207E-02                    1_GWF-(6,8,30)   79.67346    
        219        64         3                     1_GWF-(1,1,3) -0.1142854E-02                    1_GWF-(6,8,30)   57.40480    
        220        64         4                     1_GWF-(1,1,3) -0.2670080E-02                    1_GWF-(6,6,30)   28.24563    
        221        64         5                     1_GWF-(1,1,3) -0.2874985E-03                    1_GWF-(6,6,30)   16.94658    
        222        64         6                     1_GWF-(1,1,3)  0.2039415E-03                    1_GWF-(6,6,27)  -9.185630    
        223        65         1                     1_GWF-(1,1,3) -0.8641264E-03                    1_GWF-(7,8,28)   74.99520    
        224        65         2                     1_GWF-(1,1,3) -0.1996762E-02                    1_GWF-(6,8,30)   77.74175    
        225        65         3                     1_GWF-(1,1,3) -0.1134304E-02                    1_GWF-(6,8,30)   52.91004    
        226        65         4                     1_GWF-(1,1,3) -0.2410461E-02                    1_GWF-(6,6,30)   28.20048    
        227        65         5                     1_GWF-(1,1,3)  0.1974923E-03                    1_GWF-(6,5,31)   14.75342    
        228        65         6                     1_GWF-(1,1,3)  0.7066810E-03                   1_GWF-(6,22,33)  -10.14389    
        229        66         1                     1_GWF-(1,1,3) -0.5464545E-03                   1_GWF-(6,25,31)   107.0054    
        230        66         2                     1_GWF-(1,1,3) -0.8900393E-03                   1_GWF-(6,25,31)  -64.14188    
        231        66         3                     1_GWF-(1,1,3) -0.1258116E-02                    1_GWF-(6,8,30)   43.48008    
        232        66         4                     1_GWF-(1,1,3) -0.2014574E-02                   1_GWF-(6,25,31)  -31.89382    
        233        66         5                     1_GWF-(1,1,3) -0.4267006E-03                   1_GWF-(6,24,32)  -13.76427    
        234        66         6                     1_GWF-(1,1,3)  0.9209518E-04                   1_GWF-(6,23,33)  -10.12407    
        235        67         1                     1_GWF-(1,1,3) -0.5216085E-03                   1_GWF-(6,26,33)   121.1807    
        236        67         2                     1_GWF-(1,1,3) -0.1313506E-02                    1_GWF-(6,8,30)   71.33605    
        237        67         3                     1_GWF-(1,1,3) -0.8195050E-03                    1_GWF-(6,8,30)   57.30298    
        238        67         4                     1_GWF-(1,1,3) -0.2213584E-02                   1_GWF-(6,26,32)  -30.21031    
        239        67         5                     1_GWF-(1,1,3) -0.6889493E-03                   1_GWF-(6,25,32)  -20.27214    
        240        67         6                     1_GWF-(1,1,3)  0.1833743E-03                   1_GWF-(6,24,33)  -21.04521    
        241        67         7                     1_GWF-(1,1,3)  0.3098469E-03                   1_GWF-(6,26,33)  -16.14335    
        242        68         1                     1_GWF-(1,1,3) -0.5154394E-03                    1_GWF-(7,8,28)   56.60848    
        243        68         2                     1_GWF-(1,1,3) -0.1190790E-02                    1_GWF-(6,8,30)   84.13887    
        244        68         3                     1_GWF-(1,1,3) -0.1008233E-02                    1_GWF-(6,8,30)   62.25814    
        245        68         4                     1_GWF-(1,1,3) -0.2669594E-02                    1_GWF-(6,8,30)   37.67976    
        246        68         5                     1_GWF-(1,1,3) -0.8917225E-03                    1_GWF-(6,6,30)   21.86521    
        247        68         6                     1_GWF-(1,1,3)  0.4284385E-04                    1_GWF-(6,6,27)  -17.30985    
        248        68         7                     1_GWF-(1,1,3)  0.2735983E-03                    1_GWF-(6,6,27)  -12.17303    
        249        69         1                     1_GWF-(1,1,3) -0.3088535E-03                    1_GWF-(7,8,28)   54.73513    
        250        69         2                     1_GWF-(1,1,3) -0.6004495E-03                    1_GWF-(6,8,30)   77.17677    
        251        69         3                     1_GWF-(1,1,3) -0.7280409E-03                    1_GWF-(6,8,30)   56.07052    
        252        69         4                     1_GWF-(1,1,3) -0.2499968E-02                    1_GWF-(6,6,30)   31.80804    
        253        69         5                     1_GWF-(1,1,3) -0.7465894E-03                    1_GWF-(6,6,30)   18.36272    
        254        69         6                     1_GWF-(1,1,3) -0.2832259E-04                    1_GWF-(6,6,27)  -12.54155    
        255        69         7                     1_GWF-(1,1,3)  0.2712259E-03                    1_GWF-(6,6,27)  -8.888527    
        256        70         1                     1_GWF-(1,1,3) -0.3817601E-03                   1_GWF-(6,12,31)   54.97865    
        257        70         2                     1_GWF-(1,1,3) -0.1028289E-02                    1_GWF-(6,3,33)   55.02706    
        258        70         3                     1_GWF-(1,1,3) -0.7337644E-03                    1_GWF-(6,8,30)   40.87083    
        259        70         4                     1_GWF-(1,1,3) -0.2444511E-02                    1_GWF-(6,3,29)   30.17137    
        260        70         5                     1_GWF-(1,1,3) -0.4348414E-03                    1_GWF-(6,4,30)   17.24433    
        261        70         6                     1_GWF-(1,1,3)  0.1477965E-03                    1_GWF-(6,6,27)  -15.91918    
        262        70         7                     1_GWF-(1,1,3)  0.3257681E-03                    1_GWF-(6,6,27)  -10.52155    
        263        71         1                     1_GWF-(1,1,3) -0.2780488E-03                   1_GWF-(6,12,31)   46.58154    
        264        71         2                     1_GWF-(1,1,3) -0.6160110E-03                    1_GWF-(6,6,27)   53.85478    
        265        71         3                     1_GWF-(1,1,3) -0.7071332E-03                    1_GWF-(6,8,30)   37.07989    
        266        71         4                     1_GWF-(1,1,3) -0.2166858E-02                    1_GWF-(6,7,30)   26.45237    
        267        71         5                     1_GWF-(1,1,3) -0.6486907E-03                    1_GWF-(7,7,27)  -17.36671    
        268        71         6                     1_GWF-(1,1,3)  0.4428107E-04                    1_GWF-(6,6,27)  -13.07321    
        269        71         7                     1_GWF-(1,1,3)  0.1791457E-03                    1_GWF-(7,7,27)  -9.058266    
        270        72         1                     1_GWF-(1,1,3) -0.1939624E-03                   1_GWF-(6,12,31)   45.21584    
        271        72         2                     1_GWF-(1,1,3) -0.3573254E-03                    1_GWF-(6,4,27)   48.86955    
        272        72         3                     1_GWF-(1,1,3) -0.7278601E-03                    1_GWF-(6,9,30)   37.44437    
        273        72         4                     1_GWF-(1,1,3) -0.1984045E-02                    1_GWF-(6,6,29)   29.25739    
        274        72         5                     1_GWF-(1,1,3) -0.7897182E-03                    1_GWF-(6,5,30)   18.89786    
        275        72         6                     1_GWF-(1,1,3) -0.3736448E-05                    1_GWF-(6,3,30)   10.30279    
        276        72         7                     1_GWF-(1,1,3)  0.1520696E-03                    1_GWF-(6,4,27)  -6.948558    
        277        73         1                     1_GWF-(1,1,3) -0.2276880E-03                   1_GWF-(6,12,31)   39.91757    
        278        73         2                     1_GWF-(1,1,3) -0.5684281E-03                    1_GWF-(6,4,27)   44.82089    
        279        73         3                     1_GWF-(1,1,3) -0.5515543E-03                    1_GWF-(6,5,28)   31.92306    
        280        73         4                     1_GWF-(1,1,3) -0.1965347E-02                    1_GWF-(6,4,29)   27.43971    
        281        73         5                     1_GWF-(1,1,3) -0.6316882E-03                    1_GWF-(6,4,29)   17.51575    
        282        73         6                     1_GWF-(1,1,3)  0.9298321E-04                    1_GWF-(6,3,30)   11.31328    
        283        73         7                     1_GWF-(1,1,3)  0.2096228E-03                    1_GWF-(7,7,27)  -6.912254    
        284        74         1                     1_GWF-(1,1,3) -0.1458419E-03                   1_GWF-(6,18,32)   37.49085    
        285        74         2                     1_GWF-(1,1,3) -0.2465725E-03                    1_GWF-(6,5,28)   42.43251    
        286        74         3                     1_GWF-(1,1,3) -0.6104445E-03                    1_GWF-(6,5,28)   30.87466    
        287        74         4                     1_GWF-(1,1,3) -0.1692633E-02                    1_GWF-(6,4,29)   26.15679    
        288        74         5                     1_GWF-(1,1,3) -0.6955312E-03                    1_GWF-(6,5,30)   15.99289    
        289        74         6                     1_GWF-(1,1,3)  0.2765794E-05                    1_GWF-(6,3,30)   9.087989    
        290        74         7                     1_GWF-(1,1,3)  0.1150869E-03                    1_GWF-(7,7,27)  -5.182289    
        291        75         1                     1_GWF-(1,1,3) -0.1715990E-03                   1_GWF-(4,15,15)   40.39482    
        292        75         2                     1_GWF-(1,1,3) -0.3538744E-03                    1_GWF-(6,4,33)   34.93951    
        293        75         3                     1_GWF-(1,1,3) -0.3793922E-03                    1_GWF-(6,9,30)   23.43285    
        294        75         4                     1_GWF-(1,1,3) -0.1367049E-02                    1_GWF-(6,4,29)   16.26701    
        295        75         5                     1_GWF-(1,1,3) -0.2689549E-03                    1_GWF-(6,5,30)   10.40600    
        296        75         6                     1_GWF-(1,1,3)  0.1347028E-03                    1_GWF-(7,7,27)  -6.433409    
        297        76         1                     1_GWF-(1,1,3) -0.1739970E-03                   1_GWF-(6,18,32)   31.83395    
        298        76         2                     1_GWF-(1,1,3) -0.3617962E-03                    1_GWF-(6,4,33)   40.91408    
        299        76         3                     1_GWF-(1,1,3) -0.3961554E-03                    1_GWF-(6,9,30)   26.53337    
        300        76         4                     1_GWF-(1,1,3) -0.1152208E-02                    1_GWF-(6,4,29)   14.22765    
        301        76         5                     1_GWF-(1,1,3) -0.3658445E-03                    1_GWF-(7,7,27)  -11.62746    
        302        76         6                     1_GWF-(1,1,3)  0.6058827E-04                    1_GWF-(7,7,27)  -5.387809    
1
                            STRESS PERIOD NO.    2, LENGTH =   3287.000    
                            -----------------------------------------------

                              NUMBER OF TIME STEPS =    10

                               MULTIPLIER FOR DELT =     1.500

                            INITIAL TIME STEP SIZE =   29.00377    


 OUTER ITERATION SUMMARY
 ---------------------------------------------------------------------------------------
                       OUTER     INNER         MAXIMUM                    MAXIMUM CHANGE
                   ITERATION ITERATION          CHANGE                    MODEL-(CELLID)
 ---------------------------------------------------------------------------------------
 Linear Solver             1         4   -0.448687                      1_GWF-(13,27,15)
 Under-relaxation          1             -0.448687                      1_GWF-(13,27,15)
 Linear Solver             2         2   -9.860642E-02                   1_GWF-(4,14,13)

 2 CALLS TO NUMERICAL SOLUTION IN TIME STEP 1 STRESS PERIOD 2
 6 TOTAL ITERATIONS

 INNER ITERATION SUMMARY
 --------------------------------------------------------------------------------------------------------------------------------
     TOTAL      OUTER     INNER                    MAXIMUM CHANGE        MAXIMUM                  MAXIMUM RESIDUAL        MAXIMUM
 ITERATION  ITERATION ITERATION                    MODEL-(CELLID)         CHANGE                    MODEL-(CELLID)       RESIDUAL
 --------------------------------------------------------------------------------------------------------------------------------
          1         1         1                     1_GWF-(1,1,3) -0.4709086E-02                  1_GWF-(11,26,14)   366.5242    
          2         1         2                     1_GWF-(1,1,3) -0.5011951E-02                   1_GWF-(11,20,7)   59.96461    
          3         1         3                     1_GWF-(1,1,3) -0.3844923E-02                   1_GWF-(11,19,7)   8.107413    
          4         1         4                     1_GWF-(1,1,3) -0.4894879E-04                   1_GWF-(11,19,7)   1.995100    
          5         2         1                     1_GWF-(1,1,3)  0.5102790E-04                    1_GWF-(10,8,4)   19.27752    
          6         2         2                     1_GWF-(1,1,3)  0.1360564E-04                    1_GWF-(10,7,5)   2.830275    


 OUTER ITERATION SUMMARY
 ---------------------------------------------------------------------------------------
                       OUTER     INNER         MAXIMUM                    MAXIMUM CHANGE
                   ITERATION ITERATION          CHANGE                    MODEL-(CELLID)
 ---------------------------------------------------------------------------------------
 Linear Solver             1         4   -0.252025                        1_GWF-(1,27,9)
 Under-relaxation          1             -0.252025                        1_GWF-(1,27,9)
 Linear Solver             2         2   -0.132107                       1_GWF-(4,13,11)
 Under-relaxation          2             -0.132107                       1_GWF-(4,13,11)
 Linear Solver             3         2   -6.074969E-02                    1_GWF-(4,11,9)

 3 CALLS TO NUMERICAL SOLUTION IN TIME STEP 2 STRESS PERIOD 2
 8 TOTAL ITERATIONS

 INNER ITERATION SUMMARY
 --------------------------------------------------------------------------------------------------------------------------------
     TOTAL      OUTER     INNER                    MAXIMUM CHANGE        MAXIMUM                  MAXIMUM RESIDUAL        MAXIMUM
 ITERATION  ITERATION ITERATION                    MODEL-(CELLID)         CHANGE                    MODEL-(CELLID)       RESIDUAL
 --------------------------------------------------------------------------------------------------------------------------------
          1         1         1                     1_GWF-(1,1,3) -0.1983014E-01                  1_GWF-(11,26,15)   223.2081    
          2         1         2                     1_GWF-(1,1,3) -0.1284910E-01                  1_GWF-(11,26,15)  -74.59602    
          3         1         3                     1_GWF-(1,1,3) -0.2555429E-02                   1_GWF-(11,20,7)   18.14138    
          4         1         4                     1_GWF-(1,1,3) -0.3695588E-03                    1_GWF-(6,6,29)   4.461584    
          5         2         1                     1_GWF-(1,1,3)  0.1157906E-03                    1_GWF-(10,4,7)   29.61439    
          6         2         2                     1_GWF-(1,1,3)  0.2959788E-04                   1_GWF-(11,15,9)   7.521378    
          7         3         1                     1_GWF-(1,1,3)  0.8430788E-05                   1_GWF-(12,13,7)   28.43761    
          8         3         2                     1_GWF-(1,1,3) -0.1564913E-03                   1_GWF-(11,15,9)   4.689798    


 OUTER ITERATION SUMMARY
 ---------------------------------------------------------------------------------------
                       OUTER     INNER         MAXIMUM                    MAXIMUM CHANGE
                   ITERATION ITERATION          CHANGE                    MODEL-(CELLID)
 ---------------------------------------------------------------------------------------
 Linear Solver             1         4   -0.265607                       1_GWF-(4,27,17)
 Under-relaxation          1             -0.265607                       1_GWF-(4,27,17)
 Linear Solver             2         3   -0.149785                        1_GWF-(4,12,7)
 Under-relaxation          2             -0.149785                        1_GWF-(4,12,7)
 Linear Solver             3         3   -8.907000E-02                    1_GWF-(1,11,6)

 3 CALLS TO NUMERICAL SOLUTION IN TIME STEP 3 STRESS PERIOD 2
 10 TOTAL ITERATIONS

 INNER ITERATION SUMMARY
 --------------------------------------------------------------------------------------------------------------------------------
     TOTAL      OUTER     INNER                    MAXIMUM CHANGE        MAXIMUM                  MAXIMUM RESIDUAL        MAXIMUM
 ITERATION  ITERATION ITERATION                    MODEL-(CELLID)         CHANGE                    MODEL-(CELLID)       RESIDUAL
 --------------------------------------------------------------------------------------------------------------------------------
          1         1         1                     1_GWF-(1,1,3) -0.3622279E-01                  1_GWF-(11,26,15)   234.8035    
          2         1         2                     1_GWF-(1,1,3) -0.2526365E-01                  1_GWF-(11,26,15)  -103.8047    
          3         1         3                     1_GWF-(1,1,3) -0.5558008E-02                   1_GWF-(11,19,8)   24.35970    
          4         1         4                     1_GWF-(1,1,3) -0.6528333E-03                    1_GWF-(6,5,30)   8.185366    
          5         2         1                     1_GWF-(1,1,3)  0.2076727E-03                   1_GWF-(12,12,6)   82.38862    
          6         2         2                     1_GWF-(1,1,3)  0.1412416E-03                   1_GWF-(12,11,7)   19.67237    
          7         2         3                     1_GWF-(1,1,3)  0.8338960E-05                   1_GWF-(12,13,7)   5.546373    
          8         3         1                     1_GWF-(1,1,3) -0.5753930E-04                   1_GWF-(12,11,6)   62.26729    
          9         3         2                     1_GWF-(1,1,3) -0.7389193E-04                   1_GWF-(12,11,6)   11.15261    
         10         3         3                     1_GWF-(1,1,3) -0.5730620E-04                   1_GWF-(12,11,6)   2.586346    


 OUTER ITERATION SUMMARY
 ---------------------------------------------------------------------------------------
                       OUTER     INNER         MAXIMUM                    MAXIMUM CHANGE
                   ITERATION ITERATION          CHANGE                    MODEL-(CELLID)
 ---------------------------------------------------------------------------------------
 Linear Solver             1         5   -0.321665                       1_GWF-(4,27,17)
 Under-relaxation          1             -0.321665                       1_GWF-(4,27,17)
 Linear Solver             2         4   -0.148514                         1_GWF-(1,9,5)
 Under-relaxation          2             -0.148514                         1_GWF-(1,9,5)
 Linear Solver             3         3   -6.753540E-02                   1_GWF-(1,25,13)

 3 CALLS TO NUMERICAL SOLUTION IN TIME STEP 4 STRESS PERIOD 2
 12 TOTAL ITERATIONS

 INNER ITERATION SUMMARY
 --------------------------------------------------------------------------------------------------------------------------------
     TOTAL      OUTER     INNER                    MAXIMUM CHANGE        MAXIMUM                  MAXIMUM RESIDUAL        MAXIMUM
 ITERATION  ITERATION ITERATION                    MODEL-(CELLID)         CHANGE                    MODEL-(CELLID)       RESIDUAL
 --------------------------------------------------------------------------------------------------------------------------------
          1         1         1                     1_GWF-(1,1,3) -0.4970162E-01                   1_GWF-(6,26,31)   263.7310    
          2         1         2                     1_GWF-(1,1,3) -0.4465401E-01                  1_GWF-(11,26,15)  -178.7031    
          3         1         3                     1_GWF-(1,1,3) -0.1649386E-01                  1_GWF-(11,26,13)  -106.1856    
          4         1         4                     1_GWF-(1,1,3)  0.1070797E-02                    1_GWF-(6,5,30)   15.20934    
          5         1         5                     1_GWF-(1,1,3) -0.3285145E-03                    1_GWF-(6,7,29)   13.73676    
          6         2         1                     1_GWF-(1,1,3)  0.3387718E-03                    1_GWF-(10,8,4)   106.2816    
          7         2         2                     1_GWF-(1,1,3)  0.4158444E-03                    1_GWF-(10,9,3)   22.54562    
          8         2         3                     1_GWF-(1,1,3)  0.2796489E-03                    1_GWF-(10,8,4)   8.882670    
          9         2         4                     1_GWF-(1,1,3) -0.4518816E-03                   1_GWF-(11,20,8)   2.127189    
         10         3         1                     1_GWF-(1,1,3) -0.8325944E-04                    1_GWF-(10,8,4)   42.40910    
         11         3         2                     1_GWF-(1,1,3) -0.1178907E-03                    1_GWF-(10,9,3)   11.82649    
         12         3         3                     1_GWF-(1,1,3) -0.1459439E-03                    1_GWF-(10,8,4)   5.237828    


 OUTER ITERATION SUMMARY
 ---------------------------------------------------------------------------------------
                       OUTER     INNER         MAXIMUM                    MAXIMUM CHANGE
                   ITERATION ITERATION          CHANGE                    MODEL-(CELLID)
 ---------------------------------------------------------------------------------------
 Linear Solver             1         6   -0.422792                       1_GWF-(4,27,19)
 Under-relaxation          1             -0.422792                       1_GWF-(4,27,19)
 Linear Solver             2         4   -0.175007                       1_GWF-(4,23,14)
 Under-relaxation          2             -0.175007                       1_GWF-(4,23,14)
 Linear Solver             3         3   -4.363364E-02                    1_GWF-(1,22,4)

 3 CALLS TO NUMERICAL SOLUTION IN TIME STEP 5 STRESS PERIOD 2
 13 TOTAL ITERATIONS

 INNER ITERATION SUMMARY
 --------------------------------------------------------------------------------------------------------------------------------
     TOTAL      OUTER     INNER                    MAXIMUM CHANGE        MAXIMUM                  MAXIMUM RESIDUAL        MAXIMUM
 ITERATION  ITERATION ITERATION                    MODEL-(CELLID)         CHANGE                    MODEL-(CELLID)       RESIDUAL
 --------------------------------------------------------------------------------------------------------------------------------
          1         1         1                     1_GWF-(1,1,3) -0.5880428E-01                   1_GWF-(6,26,31)   328.1085    
          2         1         2                     1_GWF-(1,1,3) -0.7658852E-01                  1_GWF-(11,26,15)  -268.1496    
          3         1         3                     1_GWF-(1,1,3) -0.3083924E-02                  1_GWF-(11,26,15)  -210.0840    
          4         1         4                     1_GWF-(1,1,3) -0.4149392E-01                   1_GWF-(6,26,31)   48.49724    
          5         1         5                     1_GWF-(1,1,3)  0.8904467E-02                   1_GWF-(11,20,8)   13.29809    
          6         1         6                     1_GWF-(1,1,3) -0.2615900E-03                    1_GWF-(6,4,33)   11.17582    
          7         2         1                     1_GWF-(1,1,3)  0.7033827E-04                    1_GWF-(10,6,4)   108.6274    
          8         2         2                     1_GWF-(1,1,3)  0.1318569E-03                    1_GWF-(10,6,4)   42.09680    
          9         2         3                     1_GWF-(1,1,3) -0.2064455E-03                    1_GWF-(10,6,4)   23.21783    
         10         2         4                     1_GWF-(1,1,3) -0.1570895E-02                    1_GWF-(10,7,5)   7.293429    
         11         3         1                     1_GWF-(1,1,3) -0.1438467E-02                   1_GWF-(11,22,4)   33.60927    
         12         3         2                     1_GWF-(1,1,3) -0.1912755E-02                   1_GWF-(11,23,5)   6.649858    
         13         3         3                     1_GWF-(1,1,3) -0.1642599E-02                   1_GWF-(11,21,7)   3.789958    


 OUTER ITERATION SUMMARY
 ---------------------------------------------------------------------------------------
                       OUTER     INNER         MAXIMUM                    MAXIMUM CHANGE
                   ITERATION ITERATION          CHANGE                    MODEL-(CELLID)
 ---------------------------------------------------------------------------------------
 Linear Solver             1         7   -0.587379                       1_GWF-(4,27,20)
 Under-relaxation          1             -0.587379                       1_GWF-(4,27,20)
 Linear Solver             2         5   -0.234298                        1_GWF-(1,21,3)
 Under-relaxation          2             -0.234298                        1_GWF-(1,21,3)
 Linear Solver             3         1   -1.403286E-03                    1_GWF-(1,18,3)

 3 CALLS TO NUMERICAL SOLUTION IN TIME STEP 6 STRESS PERIOD 2
 13 TOTAL ITERATIONS

 INNER ITERATION SUMMARY
 --------------------------------------------------------------------------------------------------------------------------------
     TOTAL      OUTER     INNER                    MAXIMUM CHANGE        MAXIMUM                  MAXIMUM RESIDUAL        MAXIMUM
 ITERATION  ITERATION ITERATION                    MODEL-(CELLID)         CHANGE                    MODEL-(CELLID)       RESIDUAL
 --------------------------------------------------------------------------------------------------------------------------------
          1         1         1                     1_GWF-(1,1,3) -0.6845118E-01                   1_GWF-(6,26,31)   380.0939    
          2         1         2                     1_GWF-(1,1,3) -0.1472482                      1_GWF-(11,26,15)  -438.2952    
          3         1         3                     1_GWF-(1,1,3) -0.1887584E-01                   1_GWF-(6,26,33)   121.7814    
          4         1         4                     1_GWF-(1,1,3) -0.8738640E-02                   1_GWF-(6,26,33)   101.9553    
          5         1         5                     1_GWF-(1,1,3) -0.5173706E-01                   1_GWF-(11,20,7)   29.83859    
          6         1         6                     1_GWF-(1,1,3) -0.1406027E-01                    1_GWF-(6,4,33)   20.22575    
          7         1         7                     1_GWF-(1,1,3) -0.3305426E-04                    1_GWF-(6,4,33)   15.95651    
          8         2         1                     1_GWF-(1,1,3) -0.8239445E-03                   1_GWF-(12,21,3)   113.0663    
          9         2         2                     1_GWF-(1,1,3) -0.1029408E-02                   1_GWF-(11,21,5)   46.66999    
         10         2         3                     1_GWF-(1,1,3) -0.1357956E-02                   1_GWF-(11,21,5)   19.45597    
         11         2         4                     1_GWF-(1,1,3) -0.8402320E-03                   1_GWF-(11,21,7)   9.701970    
         12         2         5                     1_GWF-(1,1,3) -0.4823366E-03                   1_GWF-(11,21,7)   5.272031    
         13         3         1                     1_GWF-(1,1,3) -0.1386656E-03                   1_GWF-(11,21,7)   3.344408    


 OUTER ITERATION SUMMARY
 ---------------------------------------------------------------------------------------
                       OUTER     INNER         MAXIMUM                    MAXIMUM CHANGE
                   ITERATION ITERATION          CHANGE                    MODEL-(CELLID)
 ---------------------------------------------------------------------------------------
 Linear Solver             1        11   -0.803107                       1_GWF-(4,27,21)
 Under-relaxation          1             -0.803107                       1_GWF-(4,27,21)
 Linear Solver             2         6   -0.306791                       1_GWF-(1,27,12)
 Under-relaxation          2             -0.306791                       1_GWF-(1,27,12)
 Linear Solver             3         5   -0.134472                        1_GWF-(1,16,3)
 Under-relaxation          3             -0.134472                        1_GWF-(1,16,3)
 Linear Solver             4         1   -1.568106E-03                  1_GWF-(10,13,10)

 4 CALLS TO NUMERICAL SOLUTION IN TIME STEP 7 STRESS PERIOD 2
 23 TOTAL ITERATIONS

 INNER ITERATION SUMMARY
 --------------------------------------------------------------------------------------------------------------------------------
     TOTAL      OUTER     INNER                    MAXIMUM CHANGE        MAXIMUM                  MAXIMUM RESIDUAL        MAXIMUM
 ITERATION  ITERATION ITERATION                    MODEL-(CELLID)         CHANGE                    MODEL-(CELLID)       RESIDUAL
 --------------------------------------------------------------------------------------------------------------------------------
          1         1         1                     1_GWF-(1,1,3) -0.8622015E-01                   1_GWF-(6,26,31)   430.2056    
          2         1         2                     1_GWF-(1,1,3) -0.2872721                      1_GWF-(11,26,15)  -595.5189    
          3         1         3                     1_GWF-(1,1,3) -0.1460975E-01                   1_GWF-(6,26,33)   158.6473    
          4         1         4                     1_GWF-(1,1,3) -0.4947750                       1_GWF-(6,25,33)  -883.4646    
          5         1         5                     1_GWF-(1,1,3)  0.3427801                      1_GWF-(11,26,13)  -72.36758    
          6         1         6                     1_GWF-(1,1,3) -0.6086315E-01                   1_GWF-(6,25,33)  -123.7195    
          7         1         7                     1_GWF-(1,1,3) -0.1385798E-01                   1_GWF-(11,18,9)  -85.22703    
          8         1         8                     1_GWF-(1,1,3)  0.6418860E-01                    1_GWF-(6,2,33)   15.81582    
          9         1         9                     1_GWF-(1,1,3)  0.5246275E-02                    1_GWF-(6,3,33)   34.13500    
[...]
          4         1         4                     1_GWF-(2,1,3) -0.2771356E-04                   1_GWF-(6,24,32)   7.198377    
          5         1         5                     1_GWF-(2,1,3) -0.4814731E-03                     1_GWF-(9,4,3)   2.954435    
          6         2         1                     1_GWF-(2,1,3)  0.2251246E-03                   1_GWF-(6,23,32)   1.517411    
1
                            STRESS PERIOD NO.   18, LENGTH =   182.0000    
                            -----------------------------------------------

                              NUMBER OF TIME STEPS =     5

                               MULTIPLIER FOR DELT =     1.500

                            INITIAL TIME STEP SIZE =   13.80095    


 OUTER ITERATION SUMMARY
 ---------------------------------------------------------------------------------------
                       OUTER     INNER         MAXIMUM                    MAXIMUM CHANGE
                   ITERATION ITERATION          CHANGE                    MODEL-(CELLID)
 ---------------------------------------------------------------------------------------
 Linear Solver             1         3    0.162377                        1_GWF-(1,19,5)
 Under-relaxation          1              0.162377                        1_GWF-(1,19,5)
 Linear Solver             2         1    1.538909E-04                  1_GWF-(11,27,15)

 2 CALLS TO NUMERICAL SOLUTION IN TIME STEP 1 STRESS PERIOD 18
 4 TOTAL ITERATIONS

 INNER ITERATION SUMMARY
 --------------------------------------------------------------------------------------------------------------------------------
     TOTAL      OUTER     INNER                    MAXIMUM CHANGE        MAXIMUM                  MAXIMUM RESIDUAL        MAXIMUM
 ITERATION  ITERATION ITERATION                    MODEL-(CELLID)         CHANGE                    MODEL-(CELLID)       RESIDUAL
 --------------------------------------------------------------------------------------------------------------------------------
          1         1         1                    1_GWF-(1,27,9)  0.1190833                       1_GWF-(11,16,9)  -126.6661    
          2         1         2                   1_GWF-(1,27,11)  0.9057979E-02                   1_GWF-(11,16,9)   17.61020    
          3         1         3                     1_GWF-(2,1,3)  0.3211890E-03                   1_GWF-(6,21,31)  0.7288921    
          4         2         1                     1_GWF-(2,1,3)  0.8948336E-05                    1_GWF-(6,9,28)  0.1650428    


 OUTER ITERATION SUMMARY
 ---------------------------------------------------------------------------------------
                       OUTER     INNER         MAXIMUM                    MAXIMUM CHANGE
                   ITERATION ITERATION          CHANGE                    MODEL-(CELLID)
 ---------------------------------------------------------------------------------------
 Linear Solver             1         3    0.164329                        1_GWF-(2,27,3)
 Under-relaxation          1              0.164329                        1_GWF-(2,27,3)
 Linear Solver             2         1    4.089770E-04                  1_GWF-(11,27,15)

 2 CALLS TO NUMERICAL SOLUTION IN TIME STEP 2 STRESS PERIOD 18
 4 TOTAL ITERATIONS

 INNER ITERATION SUMMARY
 --------------------------------------------------------------------------------------------------------------------------------
     TOTAL      OUTER     INNER                    MAXIMUM CHANGE        MAXIMUM                  MAXIMUM RESIDUAL        MAXIMUM
 ITERATION  ITERATION ITERATION                    MODEL-(CELLID)         CHANGE                    MODEL-(CELLID)       RESIDUAL
 --------------------------------------------------------------------------------------------------------------------------------
          1         1         1                     1_GWF-(2,1,3) -0.1382591E-01                   1_GWF-(12,17,4)  -135.7012    
          2         1         2                     1_GWF-(2,1,3) -0.1674745E-02                   1_GWF-(11,20,6)  -17.33420    
          3         1         3                     1_GWF-(2,1,3)  0.9156588E-04                   1_GWF-(11,20,6)  -3.126552    
          4         2         1                     1_GWF-(2,1,3)  0.3432773E-04                   1_GWF-(11,20,6) -0.7108810    


 OUTER ITERATION SUMMARY
 ---------------------------------------------------------------------------------------
                       OUTER     INNER         MAXIMUM                    MAXIMUM CHANGE
                   ITERATION ITERATION          CHANGE                    MODEL-(CELLID)
 ---------------------------------------------------------------------------------------
 Linear Solver             1         3    0.175294                        1_GWF-(2,27,3)
 Under-relaxation          1              0.175294                        1_GWF-(2,27,3)
 Linear Solver             2         1    8.669862E-04                   1_GWF-(11,22,6)

 2 CALLS TO NUMERICAL SOLUTION IN TIME STEP 3 STRESS PERIOD 18
 4 TOTAL ITERATIONS

 INNER ITERATION SUMMARY
 --------------------------------------------------------------------------------------------------------------------------------
     TOTAL      OUTER     INNER                    MAXIMUM CHANGE        MAXIMUM                  MAXIMUM RESIDUAL        MAXIMUM
 ITERATION  ITERATION ITERATION                    MODEL-(CELLID)         CHANGE                    MODEL-(CELLID)       RESIDUAL
 --------------------------------------------------------------------------------------------------------------------------------
          1         1         1                     1_GWF-(2,1,3) -0.1711151E-01                   1_GWF-(11,20,7)  -126.5128    
          2         1         2                     1_GWF-(2,1,3) -0.7057148E-03                   1_GWF-(12,20,3)   24.73065    
          3         1         3                     1_GWF-(2,1,3) -0.1089705E-04                   1_GWF-(11,20,6)  -5.167926    
          4         2         1                     1_GWF-(2,1,3)  0.6871171E-04                   1_GWF-(11,20,6) -0.9582482    


 OUTER ITERATION SUMMARY
 ---------------------------------------------------------------------------------------
                       OUTER     INNER         MAXIMUM                    MAXIMUM CHANGE
                   ITERATION ITERATION          CHANGE                    MODEL-(CELLID)
 ---------------------------------------------------------------------------------------
 Linear Solver             1         3    0.203295                        1_GWF-(2,27,8)
 Under-relaxation          1              0.203295                        1_GWF-(2,27,8)
 Linear Solver             2         1    1.806778E-03                   1_GWF-(12,22,7)

 2 CALLS TO NUMERICAL SOLUTION IN TIME STEP 4 STRESS PERIOD 18
 4 TOTAL ITERATIONS

 INNER ITERATION SUMMARY
 --------------------------------------------------------------------------------------------------------------------------------
     TOTAL      OUTER     INNER                    MAXIMUM CHANGE        MAXIMUM                  MAXIMUM RESIDUAL        MAXIMUM
 ITERATION  ITERATION ITERATION                    MODEL-(CELLID)         CHANGE                    MODEL-(CELLID)       RESIDUAL
 --------------------------------------------------------------------------------------------------------------------------------
          1         1         1                     1_GWF-(2,1,3) -0.1806942E-01                    1_GWF-(2,27,3)  -123.3973    
          2         1         2                     1_GWF-(2,1,3)  0.7641152E-03                   1_GWF-(11,21,4)   42.67905    
          3         1         3                     1_GWF-(2,1,3) -0.3789007E-03                   1_GWF-(11,20,8)  -7.422242    
          4         2         1                     1_GWF-(2,1,3)  0.2409141E-03                   1_GWF-(11,21,5)  -2.428027    


 OUTER ITERATION SUMMARY
 ---------------------------------------------------------------------------------------
                       OUTER     INNER         MAXIMUM                    MAXIMUM CHANGE
                   ITERATION ITERATION          CHANGE                    MODEL-(CELLID)
 ---------------------------------------------------------------------------------------
 Linear Solver             1         4    0.253815                        1_GWF-(1,27,8)
 Under-relaxation          1              0.253815                        1_GWF-(1,27,8)
 Linear Solver             2         1    1.251376E-03                   1_GWF-(11,21,7)

 2 CALLS TO NUMERICAL SOLUTION IN TIME STEP 5 STRESS PERIOD 18
 5 TOTAL ITERATIONS

 INNER ITERATION SUMMARY
 --------------------------------------------------------------------------------------------------------------------------------
     TOTAL      OUTER     INNER                    MAXIMUM CHANGE        MAXIMUM                  MAXIMUM RESIDUAL        MAXIMUM
 ITERATION  ITERATION ITERATION                    MODEL-(CELLID)         CHANGE                    MODEL-(CELLID)       RESIDUAL
 --------------------------------------------------------------------------------------------------------------------------------
          1         1         1                     1_GWF-(2,1,3) -0.1413654E-01                    1_GWF-(2,27,3)  -129.7580    
          2         1         2                     1_GWF-(2,1,3)  0.2018135E-02                    1_GWF-(6,3,33)   48.32595    
          3         1         3                     1_GWF-(2,1,3)  0.4242096E-04                   1_GWF-(11,20,8)  -15.13903    
          4         1         4                     1_GWF-(2,1,3)  0.7126153E-03                    1_GWF-(6,5,31)   4.607352    
          5         2         1                     1_GWF-(2,1,3)  0.2977767E-03                    1_GWF-(6,8,30)   2.185864    
1
                            STRESS PERIOD NO.   19, LENGTH =   183.0000    
                            -----------------------------------------------

                              NUMBER OF TIME STEPS =     5

                               MULTIPLIER FOR DELT =     1.500

                            INITIAL TIME STEP SIZE =   13.87678    


 OUTER ITERATION SUMMARY
 ---------------------------------------------------------------------------------------
                       OUTER     INNER         MAXIMUM                    MAXIMUM CHANGE
                   ITERATION ITERATION          CHANGE                    MODEL-(CELLID)
 ---------------------------------------------------------------------------------------
 Linear Solver             1         3   -0.205806                        1_GWF-(1,27,3)
 Under-relaxation          1             -0.205806                        1_GWF-(1,27,3)
 Linear Solver             2         1   -3.541976E-04                  1_GWF-(11,27,15)

 2 CALLS TO NUMERICAL SOLUTION IN TIME STEP 1 STRESS PERIOD 19
 4 TOTAL ITERATIONS

 INNER ITERATION SUMMARY
 --------------------------------------------------------------------------------------------------------------------------------
     TOTAL      OUTER     INNER                    MAXIMUM CHANGE        MAXIMUM                  MAXIMUM RESIDUAL        MAXIMUM
 ITERATION  ITERATION ITERATION                    MODEL-(CELLID)         CHANGE                    MODEL-(CELLID)       RESIDUAL
 --------------------------------------------------------------------------------------------------------------------------------
          1         1         1                     1_GWF-(1,2,3) -0.5460292E-01                   1_GWF-(11,18,8)   149.8456    
          2         1         2                     1_GWF-(1,5,3) -0.1401322E-01                   1_GWF-(12,14,4)  -18.21349    
          3         1         3                    1_GWF-(1,23,9)  0.2146763E-02                   1_GWF-(6,22,31)   1.415754    
          4         2         1                   1_GWF-(1,27,13) -0.8927955E-04                  1_GWF-(11,26,14)  0.3175893    


 OUTER ITERATION SUMMARY
 ---------------------------------------------------------------------------------------
                       OUTER     INNER         MAXIMUM                    MAXIMUM CHANGE
                   ITERATION ITERATION          CHANGE                    MODEL-(CELLID)
 ---------------------------------------------------------------------------------------
 Linear Solver             1         3   -0.233646                        1_GWF-(2,27,3)
 Under-relaxation          1             -0.233646                        1_GWF-(2,27,3)
 Linear Solver             2         1   -8.117958E-04                  1_GWF-(11,27,15)

 2 CALLS TO NUMERICAL SOLUTION IN TIME STEP 2 STRESS PERIOD 19
 4 TOTAL ITERATIONS

 INNER ITERATION SUMMARY
 --------------------------------------------------------------------------------------------------------------------------------
     TOTAL      OUTER     INNER                    MAXIMUM CHANGE        MAXIMUM                  MAXIMUM RESIDUAL        MAXIMUM
 ITERATION  ITERATION ITERATION                    MODEL-(CELLID)         CHANGE                    MODEL-(CELLID)       RESIDUAL
 --------------------------------------------------------------------------------------------------------------------------------
          1         1         1                     1_GWF-(2,1,3) -0.3427234E-01                   1_GWF-(11,20,7)   168.2107    
          2         1         2                     1_GWF-(2,1,3) -0.2073440E-02                   1_GWF-(11,19,3)   21.43542    
          3         1         3                     1_GWF-(2,1,3) -0.4716002E-03                   1_GWF-(6,23,30)   3.322873    
          4         2         1                     1_GWF-(2,1,3) -0.3099275E-04                   1_GWF-(6,23,30)  0.8046340    


 OUTER ITERATION SUMMARY
 ---------------------------------------------------------------------------------------
                       OUTER     INNER         MAXIMUM                    MAXIMUM CHANGE
                   ITERATION ITERATION          CHANGE                    MODEL-(CELLID)
 ---------------------------------------------------------------------------------------
 Linear Solver             1         3   -0.266390                        1_GWF-(2,27,3)
 Under-relaxation          1             -0.266390                        1_GWF-(2,27,3)
 Linear Solver             2         1   -1.103488E-03                  1_GWF-(11,24,31)

 2 CALLS TO NUMERICAL SOLUTION IN TIME STEP 3 STRESS PERIOD 19
 4 TOTAL ITERATIONS

 INNER ITERATION SUMMARY
 --------------------------------------------------------------------------------------------------------------------------------
     TOTAL      OUTER     INNER                    MAXIMUM CHANGE        MAXIMUM                  MAXIMUM RESIDUAL        MAXIMUM
 ITERATION  ITERATION ITERATION                    MODEL-(CELLID)         CHANGE                    MODEL-(CELLID)       RESIDUAL
 --------------------------------------------------------------------------------------------------------------------------------
          1         1         1                     1_GWF-(2,1,3) -0.5571017E-01                  1_GWF-(11,26,14)   172.8596    
          2         1         2                     1_GWF-(2,1,3) -0.5539643E-02                  1_GWF-(11,27,14)  -53.70997    
          3         1         3                     1_GWF-(2,1,3) -0.9362531E-03                   1_GWF-(11,19,8)   4.693617    
          4         2         1                     1_GWF-(2,1,3) -0.1499778E-03                  1_GWF-(11,26,14)   1.363493    


 OUTER ITERATION SUMMARY
 ---------------------------------------------------------------------------------------
                       OUTER     INNER         MAXIMUM                    MAXIMUM CHANGE
                   ITERATION ITERATION          CHANGE                    MODEL-(CELLID)
 ---------------------------------------------------------------------------------------
 Linear Solver             1         4   -0.312806                        1_GWF-(2,27,3)
 Under-relaxation          1             -0.312806                        1_GWF-(2,27,3)
 Linear Solver             2         1   -1.408582E-03                  1_GWF-(13,22,18)

 2 CALLS TO NUMERICAL SOLUTION IN TIME STEP 4 STRESS PERIOD 19
 5 TOTAL ITERATIONS

 INNER ITERATION SUMMARY
 --------------------------------------------------------------------------------------------------------------------------------
     TOTAL      OUTER     INNER                    MAXIMUM CHANGE        MAXIMUM                  MAXIMUM RESIDUAL        MAXIMUM
 ITERATION  ITERATION ITERATION                    MODEL-(CELLID)         CHANGE                    MODEL-(CELLID)       RESIDUAL
 --------------------------------------------------------------------------------------------------------------------------------
          1         1         1                     1_GWF-(2,1,3) -0.7967383E-01                  1_GWF-(11,26,14)   209.8816    
          2         1         2                     1_GWF-(2,1,3) -0.1794631E-01                  1_GWF-(11,26,15)  -115.7501    
          3         1         3                     1_GWF-(2,1,3) -0.3460860E-02                  1_GWF-(11,26,13)  -16.79887    
          4         1         4                     1_GWF-(2,1,3) -0.5583880E-03                  1_GWF-(11,26,15)  -16.26303    
          5         2         1                     1_GWF-(2,1,3)  0.7582385E-04                   1_GWF-(11,20,7)  -2.866568    


 OUTER ITERATION SUMMARY
 ---------------------------------------------------------------------------------------
                       OUTER     INNER         MAXIMUM                    MAXIMUM CHANGE
                   ITERATION ITERATION          CHANGE                    MODEL-(CELLID)
 ---------------------------------------------------------------------------------------
 Linear Solver             1         5   -0.383852                        1_GWF-(2,27,3)
 Under-relaxation          1             -0.383852                        1_GWF-(2,27,3)
 Linear Solver             2         1   -8.120508E-04                  1_GWF-(11,24,33)

 2 CALLS TO NUMERICAL SOLUTION IN TIME STEP 5 STRESS PERIOD 19
 6 TOTAL ITERATIONS

 INNER ITERATION SUMMARY
 --------------------------------------------------------------------------------------------------------------------------------
     TOTAL      OUTER     INNER                    MAXIMUM CHANGE        MAXIMUM                  MAXIMUM RESIDUAL        MAXIMUM
 ITERATION  ITERATION ITERATION                    MODEL-(CELLID)         CHANGE                    MODEL-(CELLID)       RESIDUAL
 --------------------------------------------------------------------------------------------------------------------------------
          1         1         1                     1_GWF-(2,1,3) -0.1053589                      1_GWF-(11,26,14)   248.9376    
          2         1         2                     1_GWF-(2,1,3) -0.4628497E-01                  1_GWF-(11,26,15)  -201.7414    
          3         1         3                     1_GWF-(2,1,3) -0.1059140E-01                  1_GWF-(11,26,13)  -68.01970    
          4         1         4                     1_GWF-(2,1,3)  0.1375329E-03                   1_GWF-(6,24,32)   8.302837    
          5         1         5                     1_GWF-(2,1,3) -0.3445296E-03                    1_GWF-(6,3,33)   3.405577    
          6         2         1                     1_GWF-(2,1,3)  0.2268746E-03                   1_GWF-(6,23,32)   1.695132    

 INFORMATION ON VARIABLES STORED IN THE MEMORY MANAGER
 
 Number of allocated integer variables:   890115
 Number of allocated real variables:    743046
 Allocated memory in megabytes:     9.50483    
 

 Run end date and time (yyyy/mm/dd hh:mm:ss): 2020/06/05  8:04:45
 Elapsed run time:  7.091 Seconds

 Normal termination of simulation.
