                                   MODFLOW 6
                U.S. GEOLOGICAL SURVEY MODULAR HYDROLOGIC MODEL
                            VERSION 6.2.0 10/22/2020

   MODFLOW 6 compiled Oct 29 2020 12:19:52 with IFORT compiler (ver. 19.10.3)

This software has been approved for release by the U.S. Geological
Survey (USGS). Although the software has been subjected to rigorous
review, the USGS reserves the right to update the software as needed
pursuant to further analysis and review. No warranty, expressed or
implied, is made by the USGS or the U.S. Government as to the
functionality of the software and related material nor shall the
fact of release constitute any such warranty. Furthermore, the
software is released on condition that neither the USGS nor the U.S.
Government shall be held liable for any damages resulting from its
authorized or unauthorized use. Also refer to the USGS Water
Resources Software User Rights Notice for complete use, copyright,
and distribution information.


System command used to initiate simulation:
mf6

MODFLOW was compiled using uniform precision.

Real Variables
  KIND: 8
  TINY (smallest non-zero value):    2.225074-308
  HUGE (largest value):    1.797693+308
  PRECISION: 15
  BIT SIZE: 64

Integer Variables
  KIND: 4
  HUGE (largest value): 2147483647
  BIT SIZE: 32

Long Integer Variables
  KIND: 8
  HUGE (largest value): 9223372036854775807
  BIT SIZE: 64

Logical Variables
  KIND: 4
  BIT SIZE: 32


 OPENED mfsim.nam
 FILE TYPE:NAM   UNIT 1001   STATUS:OLD
 FORMAT:FORMATTED              ACCESS:SEQUENTIAL
 ACTION:READ


 READING SIMULATION OPTIONS
 END OF SIMULATION OPTIONS

 READING SIMULATION TIMING

 OPENED mfsim.tdis
 FILE TYPE:TDIS   UNIT 1002   STATUS:OLD
 FORMAT:FORMATTED              ACCESS:SEQUENTIAL
 ACTION:READ


 TDIS -- TEMPORAL DISCRETIZATION PACKAGE,
 VERSION 1 : 11/13/2014 - INPUT READ FROM UNIT 1002
 PROCESSING TDIS OPTIONS
    SIMULATION TIME UNIT IS DAYS
    SIMULATION STARTING DATE AND TIME IS 1998-04-01
 END OF TDIS OPTIONS
 PROCESSING TDIS DIMENSIONS
   19 STRESS PERIOD(S) IN SIMULATION
 END OF TDIS DIMENSIONS
 PROCESSING TDIS PERIODDATA


 STRESS PERIOD     LENGTH       TIME STEPS     MULTIPLIER FOR DELT
 ----------------------------------------------------------------------------
        1         1.000000          1                    1.000
        2         3287.000         10                    1.500
        3         183.0000          5                    1.500
        4         183.0000          5                    1.500
        5         183.0000          5                    1.500
        6         182.0000          5                    1.500
        7         183.0000          5                    1.500
        8         182.0000          5                    1.500
        9         183.0000          5                    1.500
       10         182.0000          5                    1.500
       11         183.0000          5                    1.500
       12         183.0000          5                    1.500
       13         183.0000          5                    1.500
       14         182.0000          5                    1.500
       15         183.0000          5                    1.500
       16         182.0000          5                    1.500
       17         183.0000          5                    1.500
       18         182.0000          5                    1.500
       19         183.0000          5                    1.500
 END OF TDIS PERIODDATA
 END OF SIMULATION TIMING

 READING SIMULATION MODELS
    GWF6 model SHELLMOUND will be created as model 1
 END OF SIMULATION MODELS

 READING SIMULATION EXCHANGES
 END OF SIMULATION EXCHANGES

 READING SOLUTIONGROUP

 Creating solution: SLN_1

 OPENED mfsim.ims
 FILE TYPE:IMS   UNIT 1014   STATUS:OLD
 FORMAT:FORMATTED              ACCESS:SEQUENTIAL
 ACTION:READ

 END OF SIMULATION SOLUTIONGROUP

 IMS -- ITERATIVE MODEL SOLUTION PACKAGE, VERSION 6, 4/28/2017
         INPUT READ FROM UNIT 1014

 PROCESSING IMS OPTIONS
 MODERATE OPTION:
 DEFAULT SOLVER INPUT VALUES REFLECT MODERETELY NONLINEAR MODEL
 END OF IMS OPTIONS

 PROCESSING IMS NONLINEAR
 END OF IMS NONLINEAR DATA
 **UNDER-RELAXATION WILL BE USED***

 ***IMS LINEAR SOLVER WILL BE USED***

 IMSLINEAR -- UNSTRUCTURED LINEAR SOLUTION PACKAGE, VERSION 8, 04/28/2017

 PROCESSING LINEAR DATA
 END OF LINEAR DATA

 OUTER ITERATION CONVERGENCE CRITERION    (DVCLOSE) =    0.100000E+00
 MAXIMUM NUMBER OF OUTER ITERATIONS        (MXITER) = 200
 SOLVER PRINTOUT INDEX                     (IPRIMS) = 2
 NONLINEAR ITERATION METHOD            (NONLINMETH) = 3
 LINEAR SOLUTION METHOD                   (LINMETH) = 1
 UNDER-RELAXATION WEIGHT REDUCTION FACTOR   (THETA) =    0.700000E+00
 UNDER-RELAXATION WEIGHT INCREASE INCREMENT (KAPPA) =    0.100000E+00
 UNDER-RELAXATION PREVIOUS HISTORY FACTOR   (GAMMA) =    0.000000E+00
 UNDER-RELAXATION MOMENTUM TERM         (AMOMENTUM) =    0.000000E+00

       SOLUTION BY THE BICONJUGATE-GRADIENT STABILIZED METHOD
 ------------------------------------------------------------------
 MAXIMUM OF 200 CALLS OF SOLUTION ROUTINE
 MAXIMUM OF 100 INTERNAL ITERATIONS PER CALL TO SOLUTION ROUTINE
 LINEAR ACCELERATION METHOD            = BCGS
 MATRIX PRECONDITIONING TYPE           = INCOMPLETE LUT
 MATRIX SCALING APPROACH               = NO SCALING
 MATRIX REORDERING APPROACH            = ORIGINAL ORDERING
 NUMBER OF ORTHOGONALIZATIONS          = 0
 HEAD CHANGE CRITERION FOR CLOSURE     =    0.10000E-01
 RESIDUAL CHANGE CRITERION FOR CLOSURE =    0.10000E-03
 RESIDUAL CONVERGENCE OPTION           = 3
 RESIDUAL CONVERGENCE NORM             = RELATIVE L2NORM
 RELAXATION FACTOR                     =    0.00000E+00
 NUMBER OF LEVELS                      =              7
 DROP TOLERANCE                        =    0.10000E-02


1
                            STRESS PERIOD NO.    1, LENGTH =   1.000000
                            -----------------------------------------------

                              NUMBER OF TIME STEPS =     1

                               MULTIPLIER FOR DELT =     1.000

                            INITIAL TIME STEP SIZE =   1.000000



 PSEUDO-TRANSIENT CONTINUATION WILL BE APPLIED TO MODEL 1 ("SHELLMOUND") DURING THIS TIME STEP

 OUTER ITERATION SUMMARY
 ----------------------------------------------------------------------------------------------------------
                                OUTER      INNER                    STEP   MAXIMUM CHANGE MODEL-(CELLID) OR
 OUTER ITERATION STEP       ITERATION  ITERATION  MAXIMUM CHANGE SUCCESS             MODEL-PACKAGE-(NUMBER)
 ----------------------------------------------------------------------------------------------------------
 Model                              1          2     -0.80735885                             1_GWF-(1,22,3)
 Model                              2          2     -0.95888062                             1_GWF-(3,22,3)
 Model                              3          2     -0.89883225                            1_GWF-(12,22,3)
 Model                              4          2     -0.85125424                            1_GWF-(13,22,3)
 Model                              5          2     -0.74984017                            1_GWF-(13,22,3)
 Model                              6          2     -0.66705647                            1_GWF-(13,17,3)
 Model                              7          2     -0.62274986                            1_GWF-(13,17,3)
 Model                              8          2     -0.50903472                            1_GWF-(13,17,3)
 Model                              9          2     -0.43152177                            1_GWF-(13,17,3)
 Model                             10          2     -0.44953210                           1_GWF-(13,27,33)
 Model                             11          3     -0.41125468                           1_GWF-(13,27,33)
 Model                             12          3     -0.40965647                            1_GWF-(13,19,3)
 Model                             13          3     -0.40204474                            1_GWF-(13,19,3)
 Model                             14          3     -0.42635993                            1_GWF-(13,19,3)
 Model                             15          3     -0.39741410                            1_GWF-(13,19,3)
 Model                             16          3     -0.35468614                             1_GWF-(13,1,9)
 Model                             17          3     -0.31890225                             1_GWF-(13,1,9)
 Model                             18          3     -0.35190243                             1_GWF-(13,6,6)
 Model                             19          3     -0.33748637                              1_GWF-(4,7,6)
 Model                             20          3     -0.35293307                             1_GWF-(13,7,6)
 Model                             21          3     -0.34446205                             1_GWF-(13,7,6)
 Model                             22          3     -0.33085227                              1_GWF-(4,7,7)
 Model                             23          3     -0.34420186                              1_GWF-(4,7,7)
 Model                             24          3     -0.33994026                             1_GWF-(13,3,3)
 Model                             25          3     -0.35326823                             1_GWF-(13,2,3)
 Model                             26          3     -0.37163672                             1_GWF-(13,1,3)
 Model                             27          3     -0.38648058                             1_GWF-(13,1,3)
 Model                             28          3     -0.39206375                             1_GWF-(13,1,3)
 Model                             29          4     -0.38691893                             1_GWF-(13,1,3)
 Model                             30          4     -0.37660904                             1_GWF-(13,1,3)
 Model                             31          4     -0.35964612                             1_GWF-(13,1,3)
 Model                             32          4     -0.33731633                             1_GWF-(13,1,3)
 Model                             33          4     -0.31153577                             1_GWF-(13,1,3)
 Model                             34          4     -0.27702070                             1_GWF-(13,1,3)
 Model                             35          4     -0.25159277                             1_GWF-(13,1,3)
 Model                             36          4     -0.22001919                             1_GWF-(13,1,3)
 Model                             37          4     -0.20259675                            1_GWF-(13,21,8)
 Model                             38          4     -0.19087431                            1_GWF-(13,22,8)
 Model                             39          4     -0.17672293                            1_GWF-(13,23,8)
 Model                             40          5     -0.16910729                            1_GWF-(13,1,21)
 Model                             41          5     -0.16070533                            1_GWF-(13,1,21)
 Model                             42          5     -0.14769212                            1_GWF-(13,1,21)
 Model                             43          5     -0.13904610                            1_GWF-(13,1,20)
 Model                             44          5     -0.12268291                            1_GWF-(13,1,20)
 Model                             45          5     -0.10998667                            1_GWF-(13,1,20)
 Model                             46          3 -9.94287581E-02       *                    1_GWF-(13,1,20)
 Package                           46                  3.6929493                   1_GWF-SFR_0-(258)-inflow
 Model                             47          3 -8.74775784E-02       *                    1_GWF-(13,1,20)
 Package                           47                  2.9764347                   1_GWF-SFR_0-(258)-inflow
 Model                             48          3 -6.92370748E-02       *                    1_GWF-(13,1,20)
 Package                           48                  2.4849296                   1_GWF-SFR_0-(258)-inflow
 Model                             49          3 -6.00679024E-02       *                    1_GWF-(13,1,20)
 Package                           49                  2.0071842                   1_GWF-SFR_0-(258)-inflow
 Model                             50          3 -4.55434886E-02       *                    1_GWF-(13,1,20)
 Package                           50                  1.6762284                   1_GWF-SFR_0-(258)-inflow
 Model                             51          3 -3.46027922E-02       *                     1_GWF-(4,6,11)
 Package                           51                  1.3751547                   1_GWF-SFR_0-(258)-inflow
 Model                             52          3 -2.68500879E-02       *                     1_GWF-(4,6,11)
 Package                           52                  1.0725929                   1_GWF-SFR_0-(258)-inflow
 Model                             53          2 -2.04743597E-02       *                     1_GWF-(4,6,12)
 Package                           53                 0.87039531                   1_GWF-SFR_0-(258)-inflow
 Model                             54          3 -1.59369008E-02       *                    1_GWF-(13,2,19)
 Package                           54                 0.59004908                   1_GWF-SFR_0-(258)-inflow
 Model                             55          1 -7.79346482E-03       *                     1_GWF-(4,5,12)
 Package                           55                 0.54205680                   1_GWF-SFR_0-(258)-inflow
 Model                             56          1 -2.57260093E-03       *                     1_GWF-(4,5,12)
 Package                           56                 0.24423155                   1_GWF-SFR_0-(258)-inflow
 Model                             57          1 -1.29508688E-03       *                     1_GWF-(4,5,12)
 Package                           57                 0.13398791                   1_GWF-SFR_0-(258)-inflow
 Model                             58          1 -7.95505693E-04       *                     1_GWF-(4,5,12)
 Package                           58             7.36450036E-02       *           1_GWF-SFR_0-(258)-inflow
 ----------------------------------------------------------------------------------------------------------


 58 CALLS TO NUMERICAL SOLUTION IN TIME STEP 1 STRESS PERIOD 1
 178 TOTAL ITERATIONS

 INNER ITERATION SUMMARY
 --------------------------------------------------------------------------------------------------------------------------------------
      TOTAL      OUTER      INNER                                                            MAXIMUM
  ITERATION  ITERATION  ITERATION  MAXIMUM CHANGE      MAXIMUM CHANGE MODEL-(CELLID)        RESIDUAL    MAXIMUM RESIDUAL MODEL-(CELLID)
 --------------------------------------------------------------------------------------------------------------------------------------
          1          1          1     -0.80733893                     1_GWF-(1,22,3)       30.745816                    1_GWF-(6,18,31)
          2          1          2 -9.08579234E-05                    1_GWF-(6,20,31)  1.24561667E-02                    1_GWF-(6,18,31)
          3          2          1     -0.95848718                     1_GWF-(3,22,3)       185.72511                    1_GWF-(6,10,31)
          4          2          2 -1.51782569E-03                     1_GWF-(5,3,31)      0.48842717                    1_GWF-(6,10,31)
          5          3          1     -0.89817372                    1_GWF-(12,22,3)       294.08314                    1_GWF-(6,11,30)
          6          3          2 -2.53347730E-03                     1_GWF-(5,3,31)       1.0352333                    1_GWF-(6,10,31)
          7          4          1     -0.85044880                    1_GWF-(13,22,3)       295.23386                    1_GWF-(6,11,30)
          8          4          2 -3.08261995E-03                     1_GWF-(5,3,31)       1.3896102                    1_GWF-(6,10,31)
          9          5          1     -0.74893304                    1_GWF-(13,22,3)       279.73906                    1_GWF-(6,11,30)
         10          5          2 -3.63131813E-03                     1_GWF-(5,3,31)       1.8665162                    1_GWF-(6,10,31)
         11          6          1     -0.66650480                    1_GWF-(13,17,3)       259.44374                    1_GWF-(6,10,31)
         12          6          2 -4.32121099E-03                     1_GWF-(6,6,29)       2.5796683                     1_GWF-(6,8,29)
         13          7          1     -0.62192399                    1_GWF-(13,17,3)       248.36207                    1_GWF-(6,10,31)
         14          7          2 -5.65094133E-03                     1_GWF-(6,6,29)       3.9083078                     1_GWF-(6,8,29)
         15          8          1     -0.50826053                    1_GWF-(13,17,3)       202.11570                     1_GWF-(6,2,32)
         16          8          2 -5.37753329E-03                     1_GWF-(6,6,29)       3.9380793                     1_GWF-(6,8,29)
         17          9          1     -0.43048704                    1_GWF-(13,17,3)       283.18341                   1_GWF-(12,21,34)
         18          9          2 -6.33045024E-03                     1_GWF-(7,7,28)       5.3480538                     1_GWF-(6,8,29)
         19         10          1     -0.44609089                   1_GWF-(13,27,33)       273.91375                     1_GWF-(6,8,29)
         20         10          2 -9.96831744E-03                     1_GWF-(6,2,32)       9.9761103                     1_GWF-(6,8,29)
         21         11          1     -0.40696481                   1_GWF-(13,27,33)       258.96560                     1_GWF-(6,8,29)
         22         11          2 -1.02868326E-02                     1_GWF-(6,2,32)       10.008712                     1_GWF-(6,8,29)
         23         11          3 -3.84524245E-04                    1_GWF-(6,10,33)      0.49794429                     1_GWF-(7,6,27)
         24         12          1     -0.40333641                    1_GWF-(13,19,3)       275.97542                     1_GWF-(6,8,29)
         25         12          2 -1.28551051E-02                     1_GWF-(6,3,32)       13.070432                     1_GWF-(6,8,29)
         26         12          3 -6.50276019E-04                    1_GWF-(6,10,33)      0.75306488                     1_GWF-(6,9,32)
         27         13          1     -0.39376176                    1_GWF-(13,19,3)       322.69915                   1_GWF-(11,17,18)
         28         13          2 -1.51038322E-02                     1_GWF-(6,3,32)       13.138414                     1_GWF-(6,8,29)
         29         13          3 -7.89688216E-04                    1_GWF-(6,10,33)      0.97261029                     1_GWF-(6,8,33)
         30         14          1     -0.41270821                    1_GWF-(13,19,3)       272.73455                     1_GWF-(6,8,29)
         31         14          2 -2.15795980E-02                     1_GWF-(6,3,32)       18.857845                     1_GWF-(6,8,29)
         32         14          3 -1.52814304E-03                    1_GWF-(6,10,33)       1.9928868                     1_GWF-(6,8,33)
         33         15          1     -0.38135710                    1_GWF-(13,19,3)       263.89795                     1_GWF-(6,3,32)
         34         15          2 -2.39081181E-02                     1_GWF-(6,3,32)       21.119483                     1_GWF-(6,5,27)
         35         15          3 -1.91437868E-03                    1_GWF-(6,10,33)       2.5372548                     1_GWF-(6,8,33)
         36         16          1     -0.34367142                     1_GWF-(13,1,9)       426.43381                   1_GWF-(11,24,16)
         37         16          2 -2.50461301E-02                    1_GWF-(5,17,33)       21.261281                     1_GWF-(6,5,27)
         38         16          3 -2.00203887E-03                    1_GWF-(6,10,33)       2.5292383                     1_GWF-(6,8,33)
         39         17          1     -0.30804966                     1_GWF-(13,1,9)       616.20382                   1_GWF-(11,24,16)
         40         17          2 -2.64450547E-02                    1_GWF-(5,17,33)       22.320257                     1_GWF-(6,4,33)
         41         17          3 -2.24529589E-03                     1_GWF-(5,9,33)       2.4434006                     1_GWF-(6,8,32)
         42         18          1     -0.32508485                      1_GWF-(4,6,6)       317.06588                    1_GWF-(4,24,31)
         43         18          2 -3.76374788E-02                    1_GWF-(6,16,33)       34.457304                    1_GWF-(6,16,32)
         44         18          3 -4.10112757E-03                     1_GWF-(6,9,33)       4.8131491                     1_GWF-(6,8,33)
         45         19          1     -0.30712774                      1_GWF-(3,7,6)       336.41395                     1_GWF-(6,4,17)
         46         19          2 -3.74980841E-02                    1_GWF-(6,16,33)       32.982343                     1_GWF-(6,4,33)
         47         19          3 -4.11110508E-03                     1_GWF-(6,9,33)       4.9906927                     1_GWF-(6,8,32)
         48         20          1     -0.31497038                      1_GWF-(4,7,6)       343.31186                    1_GWF-(4,24,31)
         49         20          2 -4.30469851E-02                    1_GWF-(6,16,33)       40.344327                     1_GWF-(6,4,33)
         50         20          3 -5.24540020E-03                     1_GWF-(6,9,33)       7.7998269                     1_GWF-(6,8,33)
         51         21          1     -0.30301350                      1_GWF-(4,7,6)       344.11529                    1_GWF-(4,24,31)
         52         21          2 -4.42474186E-02                     1_GWF-(12,7,7)       44.289073                     1_GWF-(6,4,33)
         53         21          3 -5.77864659E-03                     1_GWF-(6,8,33)       9.4706499                     1_GWF-(6,8,33)
         54         22          1     -0.28559972                      1_GWF-(4,7,7)       531.28298                    1_GWF-(7,23,20)
         55         22          2 -4.48662106E-02                     1_GWF-(12,7,7)       44.237149                     1_GWF-(6,6,33)
         56         22          3 -5.76469090E-03                     1_GWF-(6,8,33)       9.9568839                     1_GWF-(6,8,33)
         57         23          1     -0.28931627                     1_GWF-(1,12,3)       337.51408                    1_GWF-(4,24,31)
         58         23          2 -5.65294094E-02                      1_GWF-(1,3,4)       52.411693                     1_GWF-(6,6,33)
         59         23          3 -7.49829232E-03                     1_GWF-(6,8,33)       13.425522                     1_GWF-(6,8,33)
         60         24          1     -0.29100190                     1_GWF-(1,12,3)       322.79808                    1_GWF-(4,24,31)
         61         24          2 -6.17845463E-02                      1_GWF-(9,2,4)       51.740504                     1_GWF-(6,6,33)
         62         24          3 -7.49622570E-03                     1_GWF-(6,8,33)       13.997242                     1_GWF-(6,8,33)
         63         25          1     -0.29262364                     1_GWF-(12,2,3)       318.76773                    1_GWF-(4,22,13)
         64         25          2 -6.96466281E-02                      1_GWF-(9,2,4)       50.378250                     1_GWF-(6,6,33)
         65         25          3 -7.80105734E-03                     1_GWF-(6,8,33)       14.588818                     1_GWF-(6,8,33)
         66         26          1     -0.30151254                     1_GWF-(13,1,3)       322.53152                    1_GWF-(4,22,13)
         67         26          2 -7.65479143E-02                      1_GWF-(9,2,4)       48.982631                     1_GWF-(6,4,33)
         68         26          3 -7.97650249E-03                     1_GWF-(6,8,33)       14.056203                     1_GWF-(6,8,33)
         69         27          1     -0.30804890                     1_GWF-(13,1,3)       322.40746                    1_GWF-(4,22,13)
         70         27          2 -8.26497446E-02                      1_GWF-(9,2,4)       47.708358                     1_GWF-(6,4,33)
         71         27          3 -8.48406787E-03                     1_GWF-(6,9,33)       14.269850                     1_GWF-(6,9,33)
         72         28          1     -0.30665165                     1_GWF-(13,1,3)       319.98759                    1_GWF-(4,22,13)
         73         28          2 -8.71287055E-02                      1_GWF-(9,2,4)       44.645271                    1_GWF-(11,19,8)
         74         28          3 -9.69314422E-03                    1_GWF-(11,20,8)       12.520573                    1_GWF-(11,19,8)
         75         29          1     -0.29789504                     1_GWF-(13,1,3)       312.78925                    1_GWF-(4,22,13)
         76         29          2 -9.06985834E-02                      1_GWF-(9,2,4)       47.979764                    1_GWF-(11,20,7)
         77         29          3 -1.12417891E-02                    1_GWF-(11,20,8)       13.627694                    1_GWF-(11,19,8)
         78         29          4 -3.31992415E-03                    1_GWF-(11,20,8)      -6.9333353                      1_GWF-(9,3,4)
         79         30          1     -0.28351843                     1_GWF-(13,1,3)       301.35873                    1_GWF-(4,22,13)
         80         30          2 -9.30137158E-02                      1_GWF-(9,2,4)       51.923248                    1_GWF-(11,20,7)
         81         30          3 -1.30997923E-02                    1_GWF-(11,20,8)       14.799122                    1_GWF-(11,19,8)
         82         30          4 -4.03039521E-03                    1_GWF-(11,20,8)      -7.3082062                      1_GWF-(9,3,4)
         83         31          1     -0.26429407                     1_GWF-(13,1,3)       288.41413                    1_GWF-(4,22,13)
         84         31          2 -9.37891103E-02                      1_GWF-(9,2,4)       54.679806                    1_GWF-(11,20,7)
         85         31          3 -1.49652520E-02                    1_GWF-(11,20,8)       15.586523                    1_GWF-(11,19,8)
         86         31          4 -4.67607303E-03                    1_GWF-(11,20,8)      -7.3476949                      1_GWF-(9,3,4)
         87         32          1     -0.24169414                     1_GWF-(13,1,3)       274.51977                    1_GWF-(4,22,13)
         88         32          2 -9.26978471E-02                      1_GWF-(9,2,4)       57.726293                    1_GWF-(11,18,9)
         89         32          3 -1.68194244E-02                    1_GWF-(11,20,8)       16.497897                    1_GWF-(11,19,8)
         90         32          4 -5.21912438E-03                    1_GWF-(11,20,8)      -7.4949031                      1_GWF-(9,3,4)
         91         33          1     -0.21677796                     1_GWF-(13,1,3)       255.22213                    1_GWF-(4,22,13)
         92         33          2 -9.00565310E-02                      1_GWF-(9,2,4)       59.501006                    1_GWF-(11,18,9)
         93         33          3 -1.88413106E-02                    1_GWF-(11,20,8)       16.957444                    1_GWF-(11,19,8)
         94         33          4 -5.78666838E-03                    1_GWF-(11,20,8)      -7.3319155                      1_GWF-(9,3,4)
         95         34          1     -0.18942233                     1_GWF-(13,1,3)       317.07740                    1_GWF-(4,11,15)
         96         34          2 -8.58969974E-02                    1_GWF-(11,20,8)       57.302336                    1_GWF-(11,18,9)
         97         34          3 -1.97157483E-02                    1_GWF-(10,21,8)       15.768271                    1_GWF-(11,19,8)
         98         34          4 -5.57210721E-03                    1_GWF-(11,20,8)      -7.0881869                      1_GWF-(9,3,4)
         99         35          1     -0.18391436                    1_GWF-(13,2,21)       200.07629                    1_GWF-(4,22,13)
        100         35          2 -8.80465996E-02                    1_GWF-(11,20,8)       58.994233                    1_GWF-(11,18,9)
        101         35          3 -2.32006969E-02                    1_GWF-(10,21,8)       16.258087                    1_GWF-(11,19,8)
        102         35          4 -6.27805237E-03                    1_GWF-(11,20,8)      -7.4787611                      1_GWF-(9,3,4)
        103         36          1     -0.18232511                    1_GWF-(13,2,21)       181.48592                    1_GWF-(4,22,13)
        104         36          2 -8.58505293E-02                    1_GWF-(11,20,8)       58.569970                    1_GWF-(11,18,9)
        105         36          3 -2.56178520E-02                    1_GWF-(10,21,8)       16.170055                    1_GWF-(11,19,8)
        106         36          4 -6.66777039E-03                    1_GWF-(10,21,8)      -7.4461328                      1_GWF-(9,3,4)
        107         37          1     -0.17869185                    1_GWF-(13,2,21)       161.07542                    1_GWF-(4,22,13)
        108         37          2 -8.15529039E-02                    1_GWF-(11,21,8)       57.545108                    1_GWF-(11,20,7)
        109         37          3 -2.77676879E-02                    1_GWF-(10,21,8)       16.201981                    1_GWF-(11,19,8)
        110         37          4 -7.13121455E-03                    1_GWF-(11,22,8)      -7.3998975                      1_GWF-(9,3,4)
        111         38          1     -0.17535667                    1_GWF-(13,2,21)       142.47559                    1_GWF-(4,22,13)
        112         38          2 -7.63348555E-02                    1_GWF-(11,21,8)       56.774343                    1_GWF-(11,20,8)
        113         38          3 -3.00145408E-02                    1_GWF-(10,22,8)       16.448076                    1_GWF-(11,19,8)
        114         38          4 -7.98998726E-03                    1_GWF-(11,22,8)      -7.2607462                      1_GWF-(9,3,4)
        115         39          1     -0.17045791                    1_GWF-(13,2,21)       123.54006                    1_GWF-(4,22,13)
        116         39          2 -7.02393931E-02                    1_GWF-(11,25,8)       54.699344                    1_GWF-(11,20,8)
        117         39          3 -3.13035588E-02                    1_GWF-(10,22,8)       17.001984                    1_GWF-(11,19,8)
        118         39          4 -9.14099235E-03                    1_GWF-(11,22,8)      -6.8338202                      1_GWF-(9,3,4)
        119         40          1     -0.16341323                    1_GWF-(13,1,20)       103.59930                    1_GWF-(4,22,13)
        120         40          2 -6.31682414E-02                    1_GWF-(11,25,8)       50.996873                    1_GWF-(11,20,8)
        121         40          3 -3.11926146E-02                    1_GWF-(10,23,8)       17.410744                    1_GWF-(11,19,8)
        122         40          4 -1.05016402E-02                    1_GWF-(11,22,8)      -7.4623640                     1_GWF-(6,3,27)
        123         40          5 -2.08744519E-03                    1_GWF-(11,21,7)      -4.7945226                      1_GWF-(9,3,4)
        124         41          1     -0.15374894                    1_GWF-(13,1,20)       85.588263                    1_GWF-(11,19,8)
        125         41          2 -5.48818597E-02                    1_GWF-(11,25,8)       46.012323                    1_GWF-(11,20,8)
        126         41          3 -2.93598890E-02                    1_GWF-(11,24,8)       17.734444                    1_GWF-(11,19,8)
        127         41          4 -1.19495078E-02                    1_GWF-(11,22,8)      -8.0553823                     1_GWF-(6,3,27)
        128         41          5 -2.46072774E-03                    1_GWF-(11,21,7)      -4.9039007                      1_GWF-(9,3,4)
        129         42          1     -0.14017514                    1_GWF-(13,1,20)       78.904644                    1_GWF-(4,17,17)
        130         42          2 -4.56932174E-02                    1_GWF-(11,26,7)       39.644370                    1_GWF-(11,20,8)
        131         42          3 -2.56746908E-02                    1_GWF-(11,24,8)       17.285411                    1_GWF-(11,19,8)
        132         42          4 -1.29239355E-02                    1_GWF-(11,23,8)      -7.8963183                     1_GWF-(6,3,27)
        133         42          5 -2.99832045E-03                    1_GWF-(11,21,7)      -4.4888725                      1_GWF-(9,3,4)
        134         43          1     -0.12815327                    1_GWF-(13,1,20)       66.040311                     1_GWF-(6,2,27)
        135         43          2 -3.85471779E-02                    1_GWF-(11,26,7)       34.422757                    1_GWF-(11,20,8)
        136         43          3 -2.22323820E-02                    1_GWF-(11,24,8)       17.604167                    1_GWF-(11,19,8)
        137         43          4 -1.47972373E-02                    1_GWF-(11,23,8)      -7.8460149                     1_GWF-(6,3,27)
        138         43          5 -3.73940898E-03                    1_GWF-(11,21,7)      -4.2286409                      1_GWF-(9,3,4)
        139         44          1     -0.11118119                    1_GWF-(13,1,20)       56.425676                     1_GWF-(6,2,27)
        140         44          2 -2.99243243E-02                    1_GWF-(11,26,7)       29.635952                     1_GWF-(6,2,27)
        141         44          3 -1.70211515E-02                    1_GWF-(11,24,8)       16.070940                    1_GWF-(11,20,8)
        142         44          4 -1.46482250E-02                    1_GWF-(11,23,8)      -6.4149846                     1_GWF-(6,3,27)
        143         44          5 -4.00704541E-03                    1_GWF-(11,22,7)      -3.6102483                      1_GWF-(9,3,4)
        144         45          1 -9.60415818E-02                    1_GWF-(13,1,20)       47.826475                     1_GWF-(6,2,27)
        145         45          2 -2.32828711E-02                    1_GWF-(11,26,7)       27.529278                     1_GWF-(6,2,27)
        146         45          3 -1.29165033E-02                    1_GWF-(11,24,8)       14.494487                    1_GWF-(11,20,8)
        147         45          4 -1.40623071E-02                    1_GWF-(11,23,8)       5.1784405                    1_GWF-(11,20,7)
        148         45          5 -4.37242774E-03                    1_GWF-(11,22,8)      -3.4430029                      1_GWF-(9,3,4)
        149         46          1 -8.04318491E-02                    1_GWF-(12,1,20)       39.191042                     1_GWF-(6,2,27)
        150         46          2 -2.26771162E-02                    1_GWF-(13,5,18)       24.524568                     1_GWF-(6,2,27)
        151         46          3 -9.01197207E-03                    1_GWF-(11,25,8)       12.628151                    1_GWF-(11,20,8)
        152         47          1 -6.37167135E-02                    1_GWF-(12,1,20)       36.719210                     1_GWF-(6,2,27)
        153         47          2 -2.76963005E-02                    1_GWF-(13,4,18)       22.478282                     1_GWF-(6,2,27)
        154         47          3 -7.47802700E-03                    1_GWF-(11,24,8)       9.7699010                    1_GWF-(11,20,8)
        155         48          1 -4.77700962E-02                    1_GWF-(12,1,20)       30.014896                     1_GWF-(6,2,27)
        156         48          2 -2.40992127E-02                    1_GWF-(13,4,18)       18.423217                     1_GWF-(6,2,27)
        157         48          3 -6.03983201E-03                    1_GWF-(11,3,26)       7.7571005                    1_GWF-(11,20,8)
        158         49          1 -3.84079669E-02                     1_GWF-(4,6,11)       24.001231                     1_GWF-(6,2,27)
        159         49          2 -2.54127219E-02                    1_GWF-(13,3,18)       15.876681                     1_GWF-(6,2,27)
        160         49          3 -5.64892945E-03                    1_GWF-(11,3,26)       6.8845331                     1_GWF-(6,2,27)
        161         50          1 -3.62835706E-02                     1_GWF-(4,6,11)       18.330043                     1_GWF-(6,2,27)
        162         50          2 -2.19015243E-02                    1_GWF-(13,3,19)       11.954590                     1_GWF-(6,2,27)
        163         50          3 -5.40291189E-03                    1_GWF-(11,3,26)       5.2973452                      1_GWF-(9,2,4)
        164         51          1 -2.91989879E-02                     1_GWF-(4,6,11)       12.842921                     1_GWF-(6,2,27)
        165         51          2 -1.56485894E-02                    1_GWF-(13,2,19)       9.2348560                     1_GWF-(6,2,27)
        166         51          3 -6.77691276E-03                    1_GWF-(11,3,26)       3.6459140                    1_GWF-(11,19,8)
        167         52          1 -2.22336770E-02                     1_GWF-(4,6,11)       7.7750022                     1_GWF-(6,2,27)
        168         52          2 -1.07762629E-02                    1_GWF-(13,2,19)       6.5190826                     1_GWF-(6,2,27)
        169         52          3 -4.53432960E-03                    1_GWF-(11,3,26)       3.4811576                      1_GWF-(9,2,4)
        170         53          1 -1.71608254E-02                     1_GWF-(4,6,12)       5.4652762                     1_GWF-(6,2,27)
        171         53          2 -6.26381681E-03                    1_GWF-(13,2,18)       4.3928349                     1_GWF-(6,2,27)
        172         54          1 -1.00560522E-02                     1_GWF-(4,6,12)       4.6768686                     1_GWF-(6,2,27)
        173         54          2 -1.37025346E-02                    1_GWF-(13,2,18)      -9.9784609                    1_GWF-(6,20,32)
        174         54          3  1.55845985E-03                    1_GWF-(13,7,15)      -2.0260181                    1_GWF-(6,24,33)
        175         55          1 -7.79346482E-03                     1_GWF-(4,5,12)       1.9565256                    1_GWF-(11,20,8)
        176         56          1 -2.57260093E-03                     1_GWF-(4,5,12)       1.8134840                    1_GWF-(11,20,8)
        177         57          1 -1.29508688E-03                     1_GWF-(4,5,12)       1.7069068                    1_GWF-(11,20,8)
        178         58          1 -7.95505693E-04                     1_GWF-(4,5,12)       1.6155713                    1_GWF-(11,20,8)
 --------------------------------------------------------------------------------------------------------------------------------------


1
                            STRESS PERIOD NO.    2, LENGTH =   3287.000
                            -----------------------------------------------

                              NUMBER OF TIME STEPS =    10

                               MULTIPLIER FOR DELT =     1.500

                            INITIAL TIME STEP SIZE =   29.00377

 OUTER ITERATION SUMMARY
 ----------------------------------------------------------------------------------------------------------
                                OUTER      INNER                    STEP   MAXIMUM CHANGE MODEL-(CELLID) OR
 OUTER ITERATION STEP       ITERATION  ITERATION  MAXIMUM CHANGE SUCCESS             MODEL-PACKAGE-(NUMBER)
 ----------------------------------------------------------------------------------------------------------
 Model                              1          4     -0.42242244                           1_GWF-(13,27,15)
 Model                              2          2 -3.49720049E-02       *                    1_GWF-(4,26,14)
 Package                            2                  309.98463                   1_GWF-SFR_0-(311)-inflow
 Model                              3          1 -6.68609005E-03       *                    1_GWF-(1,24,13)
 Package                            3                  116.86751                   1_GWF-SFR_0-(258)-inflow
 Model                              4          1 -2.75385904E-03       *                    1_GWF-(1,24,13)
 Package                            4                  39.647717                   1_GWF-SFR_0-(258)-inflow
 Model                              5          1 -1.31592086E-03       *                    1_GWF-(4,24,31)
 Package                            5                  13.761359                   1_GWF-SFR_0-(311)-inflow
 Model                              6          1 -6.68720657E-04       *                    1_GWF-(4,26,30)
 Package                            6                  5.7716123                   1_GWF-SFR_0-(306)-inflow
 Model                              7          1 -3.19952975E-04       *                    1_GWF-(4,26,30)
 Package                            7                  2.7093087                   1_GWF-SFR_0-(306)-inflow
 Model                              8          1 -1.42158289E-04       *                    1_GWF-(4,26,30)
 Package                            8                  1.1828316                   1_GWF-SFR_0-(306)-inflow
 Model                              9          1 -5.95077261E-05       *                    1_GWF-(4,26,30)
 Package                            9                 0.48771989                   1_GWF-SFR_0-(306)-inflow
 Model                             10          1 -2.38511106E-05       *                    1_GWF-(4,26,30)
 Package                           10                 0.19315544                   1_GWF-SFR_0-(306)-inflow
 Model                             11          1 -9.29296167E-06       *                    1_GWF-(4,26,30)
 Package                           11             7.45909417E-02       *           1_GWF-SFR_0-(306)-inflow
 ----------------------------------------------------------------------------------------------------------


 11 CALLS TO NUMERICAL SOLUTION IN TIME STEP 1 STRESS PERIOD 2
 15 TOTAL ITERATIONS

 INNER ITERATION SUMMARY
 --------------------------------------------------------------------------------------------------------------------------------------
      TOTAL      OUTER      INNER                                                            MAXIMUM
  ITERATION  ITERATION  ITERATION  MAXIMUM CHANGE      MAXIMUM CHANGE MODEL-(CELLID)        RESIDUAL    MAXIMUM RESIDUAL MODEL-(CELLID)
 --------------------------------------------------------------------------------------------------------------------------------------
          1          1          1     -0.30707912                   1_GWF-(13,27,15)       355.98233                   1_GWF-(11,26,14)
          2          1          2 -9.64067331E-02                   1_GWF-(10,27,15)       60.442097                    1_GWF-(11,20,7)
          3          1          3 -1.92814992E-02                   1_GWF-(10,27,15)       8.5891574                    1_GWF-(11,19,7)
          4          1          4 -1.69531997E-03                    1_GWF-(11,22,7)       2.2114405                    1_GWF-(11,19,7)
          5          2          1 -2.87205935E-02                    1_GWF-(4,26,14)       35.541969                   1_GWF-(11,26,14)
          6          2          2 -9.66962673E-03                   1_GWF-(11,27,15)       9.5608677                   1_GWF-(11,26,14)
          7          3          1 -6.68609005E-03                    1_GWF-(1,24,13)       8.5518111                    1_GWF-(6,20,32)
          8          4          1 -2.75385904E-03                    1_GWF-(1,24,13)       5.4239180                    1_GWF-(6,20,32)
          9          5          1 -1.31592086E-03                    1_GWF-(4,24,31)       2.8982538                    1_GWF-(6,20,32)
         10          6          1 -6.68720657E-04                    1_GWF-(4,26,30)       1.3964504                    1_GWF-(6,20,32)
         11          7          1 -3.19952975E-04                    1_GWF-(4,26,30)      0.61696079                    1_GWF-(6,20,32)
         12          8          1 -1.42158289E-04                    1_GWF-(4,26,30)      0.25513805                    1_GWF-(6,20,32)
         13          9          1 -5.95077261E-05                    1_GWF-(4,26,30)      0.10705495                    1_GWF-(6,26,30)
         14         10          1 -2.38511106E-05                    1_GWF-(4,26,30)  4.32535120E-02                    1_GWF-(6,26,30)
         15         11          1 -9.29296167E-06                    1_GWF-(4,26,30)  1.68950559E-02                    1_GWF-(6,26,30)
 --------------------------------------------------------------------------------------------------------------------------------------



 OUTER ITERATION SUMMARY
 ----------------------------------------------------------------------------------------------------------
                                OUTER      INNER                    STEP   MAXIMUM CHANGE MODEL-(CELLID) OR
 OUTER ITERATION STEP       ITERATION  ITERATION  MAXIMUM CHANGE SUCCESS             MODEL-PACKAGE-(NUMBER)
 ----------------------------------------------------------------------------------------------------------
 Model                              1          4     -0.25230679                             1_GWF-(1,27,9)
 Model                              2          3     -0.11341564                            1_GWF-(4,26,17)
 Model                              3          2 -1.45016966E-02       *                    1_GWF-(4,26,17)
 Package                            3                  179.25958                   1_GWF-SFR_0-(258)-inflow
 Model                              4          1 -3.22299145E-03       *                    1_GWF-(1,24,13)
 Package                            4                  71.809714                   1_GWF-SFR_0-(258)-inflow
 Model                              5          1 -1.39708950E-03       *                    1_GWF-(1,24,13)
 Package                            5                  25.360999                   1_GWF-SFR_0-(311)-inflow
 Model                              6          1 -7.21561193E-04       *                    1_GWF-(4,24,31)
 Package                            6                  9.7939089                   1_GWF-SFR_0-(311)-inflow
 Model                              7          1 -3.76897517E-04       *                    1_GWF-(4,24,31)
 Package                            7                  4.4384009                   1_GWF-SFR_0-(306)-inflow
 Model                              8          1 -1.83526991E-04       *                    1_GWF-(4,26,30)
 Package                            8                  2.1527239                   1_GWF-SFR_0-(306)-inflow
 Model                              9          1 -8.46237684E-05       *                    1_GWF-(4,26,30)
 Package                            9                 0.97875958                   1_GWF-SFR_0-(306)-inflow
 Model                             10          1 -3.72548568E-05       *                    1_GWF-(4,26,30)
 Package                           10                 0.42550488                   1_GWF-SFR_0-(306)-inflow
 Model                             11          1 -1.60128474E-05       *                    1_GWF-(4,26,30)
 Package                           11                 0.18047602                   1_GWF-SFR_0-(306)-inflow
 Model                             12          1 -6.84466344E-06       *                    1_GWF-(4,26,30)
 Package                           12             7.63932425E-02       *           1_GWF-SFR_0-(306)-inflow
 ----------------------------------------------------------------------------------------------------------


 12 CALLS TO NUMERICAL SOLUTION IN TIME STEP 2 STRESS PERIOD 2
 18 TOTAL ITERATIONS

 INNER ITERATION SUMMARY
 --------------------------------------------------------------------------------------------------------------------------------------
      TOTAL      OUTER      INNER                                                            MAXIMUM
  ITERATION  ITERATION  ITERATION  MAXIMUM CHANGE      MAXIMUM CHANGE MODEL-(CELLID)        RESIDUAL    MAXIMUM RESIDUAL MODEL-(CELLID)
 --------------------------------------------------------------------------------------------------------------------------------------
          1          1          1     -0.19192699                    1_GWF-(4,22,20)       216.77666                    1_GWF-(11,21,6)
          2          1          2 -6.49895963E-02                   1_GWF-(10,27,15)      -74.833738                   1_GWF-(11,26,15)
          3          1          3 -1.12114087E-02                    1_GWF-(11,25,7)       18.292026                    1_GWF-(11,20,7)
          4          1          4 -5.21472152E-03                    1_GWF-(12,22,8)       4.3161910                    1_GWF-(11,20,7)
          5          2          1     -0.10817270                    1_GWF-(4,26,17)       38.231418                   1_GWF-(11,26,14)
          6          2          2 -1.59975436E-02                   1_GWF-(11,27,15)       12.355269                   1_GWF-(11,26,14)
          7          2          3 -1.42892041E-03                   1_GWF-(10,27,15)       8.5507169                   1_GWF-(11,26,15)
          8          3          1 -1.37812433E-02                    1_GWF-(4,26,17)       8.3324392                   1_GWF-(11,23,12)
          9          3          2 -2.96516620E-03                   1_GWF-(11,27,14)       2.6812537                   1_GWF-(11,26,14)
         10          4          1 -3.22299145E-03                    1_GWF-(1,24,13)       4.7681111                    1_GWF-(6,20,32)
         11          5          1 -1.39708950E-03                    1_GWF-(1,24,13)       3.1991545                    1_GWF-(6,20,32)
         12          6          1 -7.21561193E-04                    1_GWF-(4,24,31)       1.7633407                    1_GWF-(6,20,32)
         13          7          1 -3.76897517E-04                    1_GWF-(4,24,31)      0.87531033                    1_GWF-(6,20,32)
         14          8          1 -1.83526991E-04                    1_GWF-(4,26,30)      0.40284886                    1_GWF-(6,20,32)
         15          9          1 -8.46237684E-05                    1_GWF-(4,26,30)      0.17662255                    1_GWF-(6,20,32)
         16         10          1 -3.72548568E-05                    1_GWF-(4,26,30)  7.67814991E-02                    1_GWF-(6,17,33)
         17         11          1 -1.60128474E-05                    1_GWF-(4,26,30)  3.71130349E-02                    1_GWF-(6,17,33)
         18         12          1 -6.84466344E-06                    1_GWF-(4,26,30)  1.77076760E-02                    1_GWF-(6,17,33)
 --------------------------------------------------------------------------------------------------------------------------------------



 OUTER ITERATION SUMMARY
 ----------------------------------------------------------------------------------------------------------
                                OUTER      INNER                    STEP   MAXIMUM CHANGE MODEL-(CELLID) OR
 OUTER ITERATION STEP       ITERATION  ITERATION  MAXIMUM CHANGE SUCCESS             MODEL-PACKAGE-(NUMBER)
 ----------------------------------------------------------------------------------------------------------
 Model                              1          4     -0.25972773                             1_GWF-(1,27,9)
 Model                              2          2     -0.14666654                            1_GWF-(4,26,18)
 Model                              3          2 -1.70420219E-02       *                    1_GWF-(4,26,18)
 Package                            3                  277.84711                   1_GWF-SFR_0-(258)-inflow
 Model                              4          1 -6.85480448E-03       *                    1_GWF-(4,12,11)
 Package                            4                  127.21361                   1_GWF-SFR_0-(258)-inflow
 Model                              5          1 -2.17401008E-03       *                    1_GWF-(1,24,13)
 Package                            5                  52.085353                   1_GWF-SFR_0-(258)-inflow
 Model                              6          1 -1.05999216E-03       *                   1_GWF-(11,24,13)
 Package                            6                  23.945742                   1_GWF-SFR_0-(311)-inflow
 Model                              7          1 -5.37402883E-04       *                    1_GWF-(4,24,31)
 Package                            7                  10.586973                   1_GWF-SFR_0-(311)-inflow
 Model                              8          1 -2.90541875E-04       *                    1_GWF-(4,24,31)
 Package                            8                  4.7002523                   1_GWF-SFR_0-(306)-inflow
 Model                              9          1 -1.65283251E-04       *                   1_GWF-(11,27,14)
 Package                            9                  2.4062700                   1_GWF-SFR_0-(306)-inflow
 Model                             10          1 -9.35091109E-05       *                   1_GWF-(11,27,14)
 Package                           10                  1.1938866                   1_GWF-SFR_0-(306)-inflow
 Model                             11          1 -5.25218219E-05       *                   1_GWF-(11,27,14)
 Package                           11                 0.58530415                   1_GWF-SFR_0-(306)-inflow
 Model                             12          1 -2.92849940E-05       *                   1_GWF-(11,27,14)
 Package                           12                 0.28815657                   1_GWF-SFR_0-(306)-inflow
 Model                             13          1 -1.78863603E-05       *                   1_GWF-(11,23,10)
 Package                           13                 0.14424597                   1_GWF-SFR_0-(306)-inflow
 Model                             14          1 -1.11427934E-05       *                   1_GWF-(11,23,10)
 Package                           14             7.39969080E-02       *           1_GWF-SFR_0-(306)-inflow
 ----------------------------------------------------------------------------------------------------------


 14 CALLS TO NUMERICAL SOLUTION IN TIME STEP 3 STRESS PERIOD 2
 19 TOTAL ITERATIONS

 INNER ITERATION SUMMARY
 --------------------------------------------------------------------------------------------------------------------------------------
      TOTAL      OUTER      INNER                                                            MAXIMUM
  ITERATION  ITERATION  ITERATION  MAXIMUM CHANGE      MAXIMUM CHANGE MODEL-(CELLID)        RESIDUAL    MAXIMUM RESIDUAL MODEL-(CELLID)
 --------------------------------------------------------------------------------------------------------------------------------------
          1          1          1     -0.22622248                    1_GWF-(4,27,17)       228.57520                   1_GWF-(11,26,14)
          2          1          2     -0.11321647                   1_GWF-(10,27,15)      -119.69769                   1_GWF-(11,26,15)
          3          1          3 -2.52573321E-02                    1_GWF-(13,3,14)      -24.158803                   1_GWF-(11,26,13)
          4          1          4  6.10518117E-03                   1_GWF-(10,27,14)       7.1652831                    1_GWF-(11,20,7)
          5          2          1     -0.14400180                    1_GWF-(4,26,18)       23.118683                   1_GWF-(11,26,15)
          6          2          2 -7.64085808E-03                   1_GWF-(11,27,15)       9.8824448                   1_GWF-(11,26,14)
          7          3          1 -1.63652708E-02                    1_GWF-(4,26,18)       10.498695                   1_GWF-(11,23,12)
          8          3          2 -3.73489063E-03                   1_GWF-(11,27,14)       4.0014036                   1_GWF-(11,26,14)
          9          4          1 -6.85480448E-03                    1_GWF-(4,12,11)       5.6651479                    1_GWF-(6,20,32)
         10          5          1 -2.17401008E-03                    1_GWF-(1,24,13)       4.2128640                    1_GWF-(6,20,32)
         11          6          1 -1.05999216E-03                   1_GWF-(11,24,13)       2.5887764                    1_GWF-(6,20,32)
         12          7          1 -5.37402883E-04                    1_GWF-(4,24,31)       1.4479383                    1_GWF-(6,20,32)
         13          8          1 -2.90541875E-04                    1_GWF-(4,24,31)      0.76098935                    1_GWF-(6,20,32)
         14          9          1 -1.65283251E-04                   1_GWF-(11,27,14)      0.38629205                    1_GWF-(6,20,32)
         15         10          1 -9.35091108E-05                   1_GWF-(11,27,14)      0.19204818                    1_GWF-(6,20,32)
         16         11          1 -5.25218219E-05                   1_GWF-(11,27,14)      0.10660363                    1_GWF-(6,17,33)
         17         12          1 -2.92849940E-05                   1_GWF-(11,27,14)  6.83655294E-02                    1_GWF-(11,19,8)
         18         13          1 -1.78863603E-05                   1_GWF-(11,23,10)  4.56859527E-02                    1_GWF-(11,19,8)
         19         14          1 -1.11427934E-05                   1_GWF-(11,23,10)  3.02679198E-02                    1_GWF-(11,19,8)
 --------------------------------------------------------------------------------------------------------------------------------------



 OUTER ITERATION SUMMARY
 ----------------------------------------------------------------------------------------------------------
                                OUTER      INNER                    STEP   MAXIMUM CHANGE MODEL-(CELLID) OR
 OUTER ITERATION STEP       ITERATION  ITERATION  MAXIMUM CHANGE SUCCESS             MODEL-PACKAGE-(NUMBER)
 ----------------------------------------------------------------------------------------------------------
 Model                              1          4     -0.33397114                            1_GWF-(4,27,17)
 Model                              2          2 -9.52362180E-02       *                    1_GWF-(4,26,19)
 Package                            2                  768.27435                   1_GWF-SFR_0-(311)-inflow
 Model                              3          2 -2.45406162E-02       *                    1_GWF-(4,12,11)
 Package                            3                  396.37903                   1_GWF-SFR_0-(258)-inflow
 Model                              4          1 -9.72789333E-03       *                    1_GWF-(4,12,11)
 Package                            4                  226.29744                   1_GWF-SFR_0-(258)-inflow
 Model                              5          1 -3.73929937E-03       *                    1_GWF-(4,12,11)
 Package                            5                  113.77626                   1_GWF-SFR_0-(258)-inflow
 Model                              6          1 -2.36916197E-03       *                   1_GWF-(13,27,13)
 Package                            6                  58.534413                   1_GWF-SFR_0-(258)-inflow
 Model                              7          1 -1.51948197E-03       *                   1_GWF-(11,27,13)
 Package                            7                  30.379322                   1_GWF-SFR_0-(311)-inflow
 Model                              8          1 -8.93002071E-04       *                   1_GWF-(11,27,14)
 Package                            8                  15.388685                   1_GWF-SFR_0-(311)-inflow
 Model                              9          1 -5.24512067E-04       *                   1_GWF-(11,27,14)
 Package                            9                  7.8146524                   1_GWF-SFR_0-(311)-inflow
 Model                             10          1 -3.23865473E-04       *                   1_GWF-(11,27,15)
 Package                           10                  4.1137338                   1_GWF-SFR_0-(311)-inflow
 Model                             11          1 -2.01987517E-04       *                   1_GWF-(11,23,10)
 Package                           11                  2.2639209                   1_GWF-SFR_0-(311)-inflow
 Model                             12          1 -1.42578414E-04       *                   1_GWF-(11,23,10)
 Package                           12                  1.3148449                   1_GWF-SFR_0-(311)-inflow
 Model                             13          1 -1.03118704E-04       *                    1_GWF-(11,22,9)
 Package                           13                 0.80047075                   1_GWF-SFR_0-(311)-inflow
 Model                             14          1 -7.58302523E-05       *                    1_GWF-(11,22,9)
 Package                           14                 0.50503684                   1_GWF-SFR_0-(311)-inflow
 Model                             15          1 -5.54424418E-05       *                    1_GWF-(11,22,9)
 Package                           15                 0.32597352                   1_GWF-SFR_0-(311)-inflow
 Model                             16          1 -4.01577941E-05       *                    1_GWF-(11,22,9)
 Package                           16                 0.21267080                   1_GWF-SFR_0-(311)-inflow
 Model                             17          1 -2.89629186E-05       *                    1_GWF-(11,21,8)
 Package                           17                 0.13884242                   1_GWF-SFR_0-(311)-inflow
 Model                             18          1 -2.06820710E-05       *                    1_GWF-(11,21,8)
 Package                           18             8.99546896E-02       *           1_GWF-SFR_0-(311)-inflow
 ----------------------------------------------------------------------------------------------------------


 18 CALLS TO NUMERICAL SOLUTION IN TIME STEP 4 STRESS PERIOD 2
 23 TOTAL ITERATIONS

 INNER ITERATION SUMMARY
 --------------------------------------------------------------------------------------------------------------------------------------
      TOTAL      OUTER      INNER                                                            MAXIMUM
  ITERATION  ITERATION  ITERATION  MAXIMUM CHANGE      MAXIMUM CHANGE MODEL-(CELLID)        RESIDUAL    MAXIMUM RESIDUAL MODEL-(CELLID)
 --------------------------------------------------------------------------------------------------------------------------------------
          1          1          1     -0.29427362                    1_GWF-(4,26,18)       247.95197                   1_GWF-(11,26,15)
          2          1          2     -0.17808364                   1_GWF-(10,27,15)      -138.85509                   1_GWF-(11,26,15)
          3          1          3 -3.97174973E-02                    1_GWF-(13,2,14)      -47.214706                   1_GWF-(11,26,13)
          4          1          4  5.37272279E-03                   1_GWF-(13,26,18)      -23.490295                   1_GWF-(11,26,14)
          5          2          1 -9.17237717E-02                    1_GWF-(4,26,19)       22.616373                     1_GWF-(10,8,4)
          6          2          2 -4.89718511E-03                   1_GWF-(11,23,12)       8.4760737                    1_GWF-(11,20,7)
          7          3          1 -2.44246657E-02                    1_GWF-(4,12,11)       12.385699                   1_GWF-(11,23,12)
          8          3          2 -3.30854438E-03                   1_GWF-(11,23,12)       4.2667850                    1_GWF-(11,20,8)
          9          4          1 -9.72789333E-03                    1_GWF-(4,12,11)       7.1783395                   1_GWF-(11,23,12)
         10          5          1 -3.73929937E-03                    1_GWF-(4,12,11)       5.5031981                   1_GWF-(11,23,12)
         11          6          1 -2.36916197E-03                   1_GWF-(13,27,13)       3.7592784                   1_GWF-(11,25,13)
         12          7          1 -1.51948197E-03                   1_GWF-(11,27,13)       2.7166671                   1_GWF-(11,26,14)
         13          8          1 -8.93002071E-04                   1_GWF-(11,27,14)       1.7809664                   1_GWF-(11,26,14)
         14          9          1 -5.24512067E-04                   1_GWF-(11,27,14)       1.0383997                   1_GWF-(11,26,14)
         15         10          1 -3.23865473E-04                   1_GWF-(11,27,15)      0.75714215                    1_GWF-(11,18,9)
         16         11          1 -2.01987517E-04                   1_GWF-(11,23,10)      0.55337184                    1_GWF-(11,19,8)
         17         12          1 -1.42578414E-04                   1_GWF-(11,23,10)      0.41112444                    1_GWF-(11,19,8)
         18         13          1 -1.03118704E-04                    1_GWF-(11,22,9)      0.30121740                    1_GWF-(11,19,8)
         19         14          1 -7.58302523E-05                    1_GWF-(11,22,9)      0.21724463                    1_GWF-(11,19,8)
         20         15          1 -5.54424418E-05                    1_GWF-(11,22,9)      0.15385999                    1_GWF-(11,19,8)
         21         16          1 -4.01577941E-05                    1_GWF-(11,22,9)      0.10669243                    1_GWF-(11,19,8)
         22         17          1 -2.89629186E-05                    1_GWF-(11,21,8)  7.21908697E-02                    1_GWF-(11,19,8)
         23         18          1 -2.06820710E-05                    1_GWF-(11,21,8)  4.74857279E-02                    1_GWF-(11,19,8)
 --------------------------------------------------------------------------------------------------------------------------------------



 OUTER ITERATION SUMMARY
 ----------------------------------------------------------------------------------------------------------
                                OUTER      INNER                    STEP   MAXIMUM CHANGE MODEL-(CELLID) OR
 OUTER ITERATION STEP       ITERATION  ITERATION  MAXIMUM CHANGE SUCCESS             MODEL-PACKAGE-(NUMBER)
 ----------------------------------------------------------------------------------------------------------
 Model                              1          8     -0.38915653                            1_GWF-(4,27,17)
 Model                              2          4     -0.16938845                             1_GWF-(1,27,3)
 Model                              3          2 -2.31788771E-02       *                     1_GWF-(1,22,4)
 Package                            3                  567.85430                   1_GWF-SFR_0-(258)-inflow
 Model                              4          2 -1.41005878E-02       *                     1_GWF-(1,22,4)
 Package                            4                  319.56691                   1_GWF-SFR_0-(258)-inflow
 Model                              5          1 -5.53472496E-03       *                    1_GWF-(4,13,12)
 Package                            5                  187.04350                   1_GWF-SFR_0-(258)-inflow
 Model                              6          1 -2.95821492E-03       *                    1_GWF-(4,13,12)
 Package                            6                  97.955057                   1_GWF-SFR_0-(258)-inflow
 Model                              7          1 -2.04420330E-03       *                     1_GWF-(1,22,4)
 Package                            7                  57.773981                   1_GWF-SFR_0-(258)-inflow
 Model                              8          1 -1.70950438E-03       *                     1_GWF-(1,22,4)
 Package                            8                  34.424311                   1_GWF-SFR_0-(311)-inflow
 Model                              9          1 -1.26843468E-03       *                     1_GWF-(1,22,4)
 Package                            9                  20.469764                   1_GWF-SFR_0-(311)-inflow
 Model                             10          1 -9.82433161E-04       *                     1_GWF-(1,22,4)
 Package                           10                  12.240579                   1_GWF-SFR_0-(311)-inflow
 Model                             11          1 -7.81410371E-04       *                     1_GWF-(1,22,4)
 Package                           11                  7.4262917                   1_GWF-SFR_0-(311)-inflow
 Model                             12          1 -6.35420361E-04       *                     1_GWF-(1,22,4)
 Package                           12                  4.6332710                   1_GWF-SFR_0-(311)-inflow
 Model                             13          1 -5.26421999E-04       *                     1_GWF-(1,22,4)
 Package                           13                  2.9898246                   1_GWF-SFR_0-(311)-inflow
 Model                             14          1 -4.41336701E-04       *                     1_GWF-(1,22,4)
 Package                           14                  1.9950824                   1_GWF-SFR_0-(311)-inflow
 Model                             15          1 -3.70629944E-04       *                     1_GWF-(1,22,4)
 Package                           15                  1.3661975                   1_GWF-SFR_0-(311)-inflow
 Model                             16          1 -3.09280942E-04       *                     1_GWF-(1,22,4)
 Package                           16                 0.95055941                   1_GWF-SFR_0-(311)-inflow
 Model                             17          1 -2.55456838E-04       *                     1_GWF-(1,22,4)
 Package                           17                 0.66651130                   1_GWF-SFR_0-(311)-inflow
 Model                             18          1 -2.08631727E-04       *                     1_GWF-(1,22,4)
 Package                           18                 0.46844320                   1_GWF-SFR_0-(311)-inflow
 Model                             19          1 -1.68572928E-04       *                     1_GWF-(1,22,4)
 Package                           19                 0.32920323                   1_GWF-SFR_0-(311)-inflow
 Model                             20          1 -1.34953216E-04       *                     1_GWF-(1,22,4)
 Package                           20                 0.23135239                   1_GWF-SFR_0-(311)-inflow
 Model                             21          1 -1.07246744E-04       *                     1_GWF-(1,22,4)
 Package                           21                 0.16284766                   1_GWF-SFR_0-(311)-inflow
 Model                             22          1 -8.47620389E-05       *                     1_GWF-(1,22,4)
 Package                           22                 0.11505579                   1_GWF-SFR_0-(311)-inflow
 Model                             23          1 -6.67314873E-05       *                     1_GWF-(1,22,4)
 Package                           23             8.17461016E-02       *           1_GWF-SFR_0-(311)-inflow
 ----------------------------------------------------------------------------------------------------------


 23 CALLS TO NUMERICAL SOLUTION IN TIME STEP 5 STRESS PERIOD 2
 35 TOTAL ITERATIONS

 INNER ITERATION SUMMARY
 --------------------------------------------------------------------------------------------------------------------------------------
      TOTAL      OUTER      INNER                                                            MAXIMUM
  ITERATION  ITERATION  ITERATION  MAXIMUM CHANGE      MAXIMUM CHANGE MODEL-(CELLID)        RESIDUAL    MAXIMUM RESIDUAL MODEL-(CELLID)
 --------------------------------------------------------------------------------------------------------------------------------------
          1          1          1     -0.36328727                    1_GWF-(13,2,16)       267.43907                   1_GWF-(11,26,15)
          2          1          2     -0.24063535                   1_GWF-(11,27,15)      -174.52960                   1_GWF-(11,26,15)
          3          1          3 -6.76785478E-02                    1_GWF-(11,23,8)      -104.45619                   1_GWF-(11,26,13)
          4          1          4  2.58450417E-02                   1_GWF-(13,26,19)      -27.801377                   1_GWF-(11,26,14)
          5          1          5  1.38622973E-02                   1_GWF-(10,27,15)      -14.421581                   1_GWF-(11,26,14)
          6          1          6 -1.36771193E-02                   1_GWF-(11,27,15)      -25.935462                   1_GWF-(11,26,14)
          7          1          7  2.49173690E-02                   1_GWF-(11,27,15)      -1.8140396                     1_GWF-(6,3,27)
          8          1          8  1.05772084E-03                     1_GWF-(13,2,3)     -0.27526232                      1_GWF-(9,2,5)
          9          2          1     -0.14579450                    1_GWF-(4,27,21)       52.724854                    1_GWF-(11,25,3)
         10          2          2 -3.85946501E-02                    1_GWF-(11,27,3)       21.514955                    1_GWF-(11,25,3)
         11          2          3 -1.98067947E-02                    1_GWF-(11,26,3)       11.281368                     1_GWF-(3,26,4)
         12          2          4 -9.57516090E-03                    1_GWF-(13,27,3)       3.6970688                    1_GWF-(11,25,5)
         13          3          1 -1.95170692E-02                    1_GWF-(4,27,23)       24.482796                    1_GWF-(11,22,4)
         14          3          2 -4.31167416E-03                    1_GWF-(11,22,4)       5.8451352                    1_GWF-(11,21,5)
         15          4          1 -1.09604475E-02                     1_GWF-(1,22,4)       16.071541                    1_GWF-(11,22,4)
         16          4          2 -3.16988301E-03                    1_GWF-(11,22,4)       4.5399325                    1_GWF-(11,21,5)
         17          5          1 -5.53472496E-03                    1_GWF-(4,13,12)       8.0079338                    1_GWF-(11,22,4)
         18          6          1 -2.95821492E-03                    1_GWF-(4,13,12)       6.4917734                    1_GWF-(11,22,4)
         19          7          1 -2.04420330E-03                     1_GWF-(1,22,4)       4.9742687                    1_GWF-(11,22,4)
         20          8          1 -1.70950438E-03                     1_GWF-(1,22,4)       3.9703705                    1_GWF-(11,21,5)
         21          9          1 -1.26843468E-03                     1_GWF-(1,22,4)       3.0781393                    1_GWF-(11,21,5)
         22         10          1 -9.82433161E-04                     1_GWF-(1,22,4)       2.3849762                    1_GWF-(11,21,5)
         23         11          1 -7.81410371E-04                     1_GWF-(1,22,4)       1.8762701                    1_GWF-(11,21,5)
         24         12          1 -6.35420361E-04                     1_GWF-(1,22,4)       1.5016808                    1_GWF-(11,21,5)
         25         13          1 -5.26421999E-04                     1_GWF-(1,22,4)       1.2183217                    1_GWF-(11,21,5)
         26         14          1 -4.41336701E-04                     1_GWF-(1,22,4)      0.99324177                    1_GWF-(11,21,5)
         27         15          1 -3.70629944E-04                     1_GWF-(1,22,4)      0.80666361                    1_GWF-(11,21,5)
         28         16          1 -3.09280942E-04                     1_GWF-(1,22,4)      0.64975127                    1_GWF-(11,21,5)
         29         17          1 -2.55456838E-04                     1_GWF-(1,22,4)      0.51880381                    1_GWF-(11,21,5)
         30         18          1 -2.08631727E-04                     1_GWF-(1,22,4)      0.41118849                    1_GWF-(11,21,5)
         31         19          1 -1.68572928E-04                     1_GWF-(1,22,4)      0.32406716                    1_GWF-(11,21,5)
         32         20          1 -1.34953216E-04                     1_GWF-(1,22,4)      0.25438939                    1_GWF-(11,21,5)
         33         21          1 -1.07246744E-04                     1_GWF-(1,22,4)      0.19916449                    1_GWF-(11,21,5)
         34         22          1 -8.47620389E-05                     1_GWF-(1,22,4)      0.15566881                    1_GWF-(11,21,5)
         35         23          1 -6.67314873E-05                     1_GWF-(1,22,4)      0.12155328                    1_GWF-(11,21,5)
 --------------------------------------------------------------------------------------------------------------------------------------



 OUTER ITERATION SUMMARY
 ----------------------------------------------------------------------------------------------------------
                                OUTER      INNER                    STEP   MAXIMUM CHANGE MODEL-(CELLID) OR
 OUTER ITERATION STEP       ITERATION  ITERATION  MAXIMUM CHANGE SUCCESS             MODEL-PACKAGE-(NUMBER)
 ----------------------------------------------------------------------------------------------------------
 Model                              1          6     -0.46581833                            1_GWF-(4,27,19)
 Model                              2          6     -0.25156773                             1_GWF-(1,22,3)
 Model                              3          4     -0.13558387                             1_GWF-(1,12,6)
 Model                              4          4     -0.11589195                             1_GWF-(1,12,6)
 Model                              5          4     -0.11598988                             1_GWF-(4,11,7)
 Model                              6          2 -2.83245106E-02       *                     1_GWF-(1,11,6)
 Package                            6                  97.795396                   1_GWF-SFR_0-(306)-inflow
 Model                              7          1 -9.05827787E-03       *                     1_GWF-(1,11,6)
 Package                            7                  68.403130                   1_GWF-SFR_0-(306)-inflow
 Model                              8          1 -5.24964842E-03       *                     1_GWF-(1,11,6)
 Package                            8                  43.388394                   1_GWF-SFR_0-(306)-inflow
 Model                              9          1 -3.89294267E-03       *                     1_GWF-(1,11,6)
 Package                            9                  29.268802                   1_GWF-SFR_0-(306)-inflow
 Model                             10          1 -2.95404804E-03       *                     1_GWF-(1,11,6)
 Package                           10                  18.402635                   1_GWF-SFR_0-(306)-inflow
 Model                             11          1 -2.34183220E-03       *                     1_GWF-(1,11,6)
 Package                           11                  11.006455                   1_GWF-SFR_0-(306)-inflow
 Model                             12          1 -1.90087545E-03       *                     1_GWF-(1,11,6)
 Package                           12                  6.3267924                   1_GWF-SFR_0-(306)-inflow
 Model                             13          1 -1.58047121E-03       *                     1_GWF-(1,11,6)
[...]
 Model                              7          1 -7.64507889E-04       *                    1_GWF-(4,26,30)
 Package                            7                  4.2596964                   1_GWF-SFR_0-(306)-inflow
 Model                              8          1 -4.24983287E-04       *                    1_GWF-(4,26,30)
 Package                            8                  2.3300622                   1_GWF-SFR_0-(306)-inflow
 Model                              9          1 -2.28034513E-04       *                    1_GWF-(4,26,30)
 Package                            9                  1.2363353                   1_GWF-SFR_0-(306)-inflow
 Model                             10          1 -1.18420218E-04       *                    1_GWF-(4,26,30)
 Package                           10                 0.63654658                   1_GWF-SFR_0-(306)-inflow
 Model                             11          1 -5.95893034E-05       *                    1_GWF-(4,26,30)
 Package                           11                 0.31747812                   1_GWF-SFR_0-(306)-inflow
 Model                             12          1 -2.91085920E-05       *                    1_GWF-(4,26,30)
 Package                           12                 0.15385586                   1_GWF-SFR_0-(306)-inflow
 Model                             13          1 -1.38543036E-05       *                    1_GWF-(4,26,30)
 Package                           13             7.27113974E-02       *           1_GWF-SFR_0-(306)-inflow
 ----------------------------------------------------------------------------------------------------------


 13 CALLS TO NUMERICAL SOLUTION IN TIME STEP 3 STRESS PERIOD 19
 15 TOTAL ITERATIONS

 INNER ITERATION SUMMARY
 --------------------------------------------------------------------------------------------------------------------------------------
      TOTAL      OUTER      INNER                                                            MAXIMUM
  ITERATION  ITERATION  ITERATION  MAXIMUM CHANGE      MAXIMUM CHANGE MODEL-(CELLID)        RESIDUAL    MAXIMUM RESIDUAL MODEL-(CELLID)
 --------------------------------------------------------------------------------------------------------------------------------------
          1          1          1     -0.21025025                     1_GWF-(1,27,3)       122.00139                   1_GWF-(11,26,14)
          2          1          2 -2.87232624E-02                    1_GWF-(12,17,7)       38.148173                    1_GWF-(6,26,30)
          3          1          3 -4.50759423E-03                   1_GWF-(13,15,20)       4.9009156                    1_GWF-(11,19,8)
          4          2          1 -8.12519165E-03                    1_GWF-(4,21,30)       14.771271                    1_GWF-(6,20,32)
          5          3          1 -4.94315353E-03                    1_GWF-(4,21,33)       12.386663                    1_GWF-(6,20,32)
          6          4          1 -3.36962926E-03                    1_GWF-(4,22,33)       8.2583998                    1_GWF-(6,20,32)
          7          5          1 -2.13959144E-03                    1_GWF-(4,24,31)       4.9266977                    1_GWF-(6,20,32)
          8          6          1 -1.31421973E-03                    1_GWF-(4,26,30)       2.7701832                    1_GWF-(6,20,32)
          9          7          1 -7.64507889E-04                    1_GWF-(4,26,30)       1.5073254                    1_GWF-(6,24,31)
         10          8          1 -4.24983287E-04                    1_GWF-(4,26,30)      0.82706099                    1_GWF-(6,24,31)
         11          9          1 -2.28034513E-04                    1_GWF-(4,26,30)      0.44078240                    1_GWF-(6,24,31)
         12         10          1 -1.18420218E-04                    1_GWF-(4,26,30)      0.22732107                    1_GWF-(6,24,31)
         13         11          1 -5.95893034E-05                    1_GWF-(4,26,30)      0.11368353                    1_GWF-(6,24,31)
         14         12          1 -2.91085920E-05                    1_GWF-(4,26,30)  5.52330314E-02                    1_GWF-(6,24,31)
         15         13          1 -1.38543036E-05                    1_GWF-(4,26,30)  2.61549700E-02                    1_GWF-(6,24,31)
 --------------------------------------------------------------------------------------------------------------------------------------



 OUTER ITERATION SUMMARY
 ----------------------------------------------------------------------------------------------------------
                                OUTER      INNER                    STEP   MAXIMUM CHANGE MODEL-(CELLID) OR
 OUTER ITERATION STEP       ITERATION  ITERATION  MAXIMUM CHANGE SUCCESS             MODEL-PACKAGE-(NUMBER)
 ----------------------------------------------------------------------------------------------------------
 Model                              1          4     -0.24653179                             1_GWF-(1,27,3)
 Model                              2          1 -8.68513061E-03       *                    1_GWF-(4,21,30)
 Package                            2                  40.758916                   1_GWF-SFR_0-(306)-inflow
 Model                              3          1 -6.03984554E-03       *                    1_GWF-(4,21,30)
 Package                            3                  28.822551                   1_GWF-SFR_0-(306)-inflow
 Model                              4          1 -3.88968634E-03       *                    1_GWF-(4,19,31)
 Package                            4                  23.718446                   1_GWF-SFR_0-(306)-inflow
 Model                              5          1 -2.56158333E-03       *                    1_GWF-(4,22,33)
 Package                            5                  17.803988                   1_GWF-SFR_0-(306)-inflow
 Model                              6          1 -1.80179538E-03       *                    1_GWF-(4,26,30)
 Package                            6                  12.255448                   1_GWF-SFR_0-(306)-inflow
 Model                              7          1 -1.20692263E-03       *                    1_GWF-(4,26,30)
 Package                            7                  7.9524802                   1_GWF-SFR_0-(306)-inflow
 Model                              8          1 -7.69924636E-04       *                    1_GWF-(4,26,30)
 Package                            8                  4.9593004                   1_GWF-SFR_0-(306)-inflow
 Model                              9          1 -4.73598569E-04       *                    1_GWF-(4,26,30)
 Package                            9                  3.0015724                   1_GWF-SFR_0-(306)-inflow
 Model                             10          1 -2.82378310E-04       *                    1_GWF-(4,26,30)
 Package                           10                  1.7682476                   1_GWF-SFR_0-(306)-inflow
 Model                             11          1 -1.63504196E-04       *                    1_GWF-(4,26,30)
 Package                           11                  1.0135337                   1_GWF-SFR_0-(306)-inflow
 Model                             12          1 -9.20918769E-05       *                    1_GWF-(4,26,30)
 Package                           12                 0.56578769                   1_GWF-SFR_0-(306)-inflow
 Model                             13          1 -5.06432387E-05       *                    1_GWF-(4,26,30)
 Package                           13                 0.30871138                   1_GWF-SFR_0-(306)-inflow
 Model                             14          1 -2.73524992E-05       *                    1_GWF-(4,26,30)
 Package                           14                 0.16562486                   1_GWF-SFR_0-(306)-inflow
 Model                             15          1 -1.46109022E-05       *                    1_GWF-(4,26,30)
 Package                           15             8.79919584E-02       *           1_GWF-SFR_0-(306)-inflow
 ----------------------------------------------------------------------------------------------------------


 15 CALLS TO NUMERICAL SOLUTION IN TIME STEP 4 STRESS PERIOD 19
 18 TOTAL ITERATIONS

 INNER ITERATION SUMMARY
 --------------------------------------------------------------------------------------------------------------------------------------
      TOTAL      OUTER      INNER                                                            MAXIMUM
  ITERATION  ITERATION  ITERATION  MAXIMUM CHANGE      MAXIMUM CHANGE MODEL-(CELLID)        RESIDUAL    MAXIMUM RESIDUAL MODEL-(CELLID)
 --------------------------------------------------------------------------------------------------------------------------------------
          1          1          1     -0.22811801                     1_GWF-(1,27,3)       152.81273                   1_GWF-(11,26,14)
          2          1          2 -5.40777223E-02                   1_GWF-(11,27,14)       67.955749                    1_GWF-(6,26,30)
          3          1          3 -1.67092733E-02                   1_GWF-(13,15,20)      -8.8643278                    1_GWF-(6,26,30)
          4          1          4 -2.12853071E-03                    1_GWF-(12,22,7)       2.9799633                    1_GWF-(11,21,5)
          5          2          1 -8.68513061E-03                    1_GWF-(4,21,30)       13.993119                    1_GWF-(6,20,32)
          6          3          1 -6.03984554E-03                    1_GWF-(4,21,30)       13.371233                    1_GWF-(6,20,32)
          7          4          1 -3.88968634E-03                    1_GWF-(4,19,31)       10.220977                    1_GWF-(6,20,32)
          8          5          1 -2.56158333E-03                    1_GWF-(4,22,33)       6.9919845                    1_GWF-(6,20,32)
          9          6          1 -1.80179538E-03                    1_GWF-(4,26,30)       4.4870838                    1_GWF-(6,20,32)
         10          7          1 -1.20692263E-03                    1_GWF-(4,26,30)       2.7718236                    1_GWF-(6,20,32)
         11          8          1 -7.69924636E-04                    1_GWF-(4,26,30)       1.6640886                    1_GWF-(6,20,32)
         12          9          1 -4.73598569E-04                    1_GWF-(4,26,30)      0.97117411                    1_GWF-(6,20,32)
         13         10          1 -2.82378310E-04                    1_GWF-(4,26,30)      0.55224245                    1_GWF-(5,23,32)
         14         11          1 -1.63504196E-04                    1_GWF-(4,26,30)      0.31007643                    1_GWF-(5,23,32)
         15         12          1 -9.20918769E-05                    1_GWF-(4,26,30)      0.16919448                    1_GWF-(5,23,32)
         16         13          1 -5.06432387E-05                    1_GWF-(4,26,30)  9.01983688E-02                    1_GWF-(5,23,32)
         17         14          1 -2.73524992E-05                    1_GWF-(4,26,30)  4.81293741E-02                    1_GWF-(6,24,31)
         18         15          1 -1.46109022E-05                    1_GWF-(4,26,30)  2.57441992E-02                    1_GWF-(6,24,31)
 --------------------------------------------------------------------------------------------------------------------------------------



 OUTER ITERATION SUMMARY
 ----------------------------------------------------------------------------------------------------------
                                OUTER      INNER                    STEP   MAXIMUM CHANGE MODEL-(CELLID) OR
 OUTER ITERATION STEP       ITERATION  ITERATION  MAXIMUM CHANGE SUCCESS             MODEL-PACKAGE-(NUMBER)
 ----------------------------------------------------------------------------------------------------------
 Model                              1          6     -0.28694218                             1_GWF-(1,27,3)
 Model                              2          2 -2.72088327E-02       *                    1_GWF-(4,21,30)
 Package                            2                  40.410349                   1_GWF-SFR_0-(322)-inflow
 Model                              3          2     -0.11634121                            1_GWF-(4,21,30)
 Model                              4          2 -7.38634435E-02       *                    1_GWF-(4,22,30)
 Package                            4                  21.192079                   1_GWF-SFR_0-(306)-inflow
 Model                              5          2 -4.91475603E-02       *                    1_GWF-(4,22,30)
 Package                            5                  15.394841                   1_GWF-SFR_0-(306)-inflow
 Model                              6          2 -3.04607084E-02       *                    1_GWF-(4,22,30)
 Package                            6                  9.9525654                   1_GWF-SFR_0-(306)-inflow
 Model                              7          2 -1.78686513E-02       *                    1_GWF-(4,22,30)
 Package                            7                  5.2678788                   1_GWF-SFR_0-(322)-inflow
 Model                              8          1 -3.61832483E-03       *                    1_GWF-(4,22,29)
 Package                            8                  2.7575032                   1_GWF-SFR_0-(322)-inflow
 Model                              9          1 -3.38418416E-03       *                    1_GWF-(4,22,29)
 Package                            9                  1.6047120                   1_GWF-SFR_0-(252)-inflow
 Model                             10          1 -9.23052712E-03       *                    1_GWF-(4,22,29)
 Package                           10                 0.53259720                   1_GWF-SFR_0-(322)-inflow
 Model                             11          1 -2.99758444E-03       *                    1_GWF-(4,22,29)
 Package                           11                 0.38595350                   1_GWF-SFR_0-(322)-inflow
 Model                             12          1 -1.13721036E-03       *                    1_GWF-(4,22,29)
 Package                           12                 0.24217547                   1_GWF-SFR_0-(322)-inflow
 Model                             13          1 -4.59152893E-04       *                    1_GWF-(4,22,29)
 Package                           13                 0.14059832                   1_GWF-SFR_0-(322)-inflow
 Model                             14          1 -1.92412928E-04       *                    1_GWF-(4,22,29)
 Package                           14             8.07240707E-02       *           1_GWF-SFR_0-(322)-inflow
 ----------------------------------------------------------------------------------------------------------


 14 CALLS TO NUMERICAL SOLUTION IN TIME STEP 5 STRESS PERIOD 19
 25 TOTAL ITERATIONS

 INNER ITERATION SUMMARY
 --------------------------------------------------------------------------------------------------------------------------------------
      TOTAL      OUTER      INNER                                                            MAXIMUM
  ITERATION  ITERATION  ITERATION  MAXIMUM CHANGE      MAXIMUM CHANGE MODEL-(CELLID)        RESIDUAL    MAXIMUM RESIDUAL MODEL-(CELLID)
 --------------------------------------------------------------------------------------------------------------------------------------
          1          1          1     -0.23857180                     1_GWF-(1,27,3)       188.03993                   1_GWF-(11,26,14)
          2          1          2     -0.10559564                   1_GWF-(11,27,14)      -111.38779                   1_GWF-(11,26,15)
          3          1          3 -5.26261848E-02                   1_GWF-(13,25,26)      -39.110155                    1_GWF-(6,26,30)
          4          1          4  3.20104720E-02                   1_GWF-(13,26,26)       44.086087                    1_GWF-(6,26,30)
          5          1          5 -1.73184212E-02                   1_GWF-(13,26,26)       3.6015900                    1_GWF-(11,21,6)
          6          1          6 -1.68658580E-03                    1_GWF-(11,21,6)      0.52707530                    1_GWF-(11,21,5)
          7          2          1 -2.70541749E-02                    1_GWF-(4,21,30)       17.332632                    1_GWF-(6,26,30)
          8          2          2 -1.63063752E-03                   1_GWF-(11,21,32)       2.0031818                    1_GWF-(6,17,32)
          9          3          1     -0.11545927                    1_GWF-(4,21,30)       23.050173                    1_GWF-(6,20,32)
         10          3          2 -3.40614709E-03                   1_GWF-(11,21,32)       2.2503751                    1_GWF-(6,17,32)
         11          4          1 -7.31687733E-02                    1_GWF-(4,22,30)       15.336484                    1_GWF-(6,26,30)
         12          4          2 -2.18234465E-03                   1_GWF-(11,21,32)       1.7340363                    1_GWF-(6,17,32)
         13          5          1 -4.86072014E-02                    1_GWF-(4,22,30)       11.581718                    1_GWF-(6,26,30)
         14          5          2 -1.47934532E-03                   1_GWF-(11,21,32)      -3.0143059                    1_GWF-(6,25,30)
         15          6          1 -3.01499561E-02                    1_GWF-(4,22,30)       7.7316593                    1_GWF-(6,26,30)
         16          6          2 -6.98422998E-04                   1_GWF-(11,21,32)      -1.3335227                    1_GWF-(6,26,30)
         17          7          1 -1.77093693E-02                    1_GWF-(4,22,30)       4.4827306                    1_GWF-(6,26,30)
         18          7          2 -3.57142109E-04                   1_GWF-(11,21,32)     -0.56959347                    1_GWF-(6,26,30)
         19          8          1 -3.61832483E-03                    1_GWF-(4,22,29)       2.2705403                    1_GWF-(6,26,30)
         20          9          1 -3.38418416E-03                    1_GWF-(4,22,29)       1.0617327                    1_GWF-(6,26,30)
         21         10          1 -9.23052712E-03                    1_GWF-(4,22,29)      0.59909210                    1_GWF-(6,26,30)
         22         11          1 -2.99758444E-03                    1_GWF-(4,22,29)      0.39464418                    1_GWF-(6,26,30)
         23         12          1 -1.13721036E-03                    1_GWF-(4,22,29)      0.23782409                    1_GWF-(6,26,30)
         24         13          1 -4.59152893E-04                    1_GWF-(4,22,29)      0.13751781                    1_GWF-(6,26,30)
         25         14          1 -1.92412928E-04                    1_GWF-(4,22,29)  7.85894160E-02                    1_GWF-(6,26,30)
 --------------------------------------------------------------------------------------------------------------------------------------



 MEMORY MANAGER TOTAL STORAGE BY DATA TYPE, IN MEGABYTES
 -------------------------------
                    ALLOCATED
 DATA TYPE           MEMORY
 -------------------------------
 Character        3.01130000E-02
 Logical          4.40000000E-05
 Integer          3.5762320
 Real             5.9702560
 -------------------------------
 Total            9.5766450
 -------------------------------



 Run end date and time (yyyy/mm/dd hh:mm:ss): 2021/07/15 21:44:11
 Elapsed run time:  9.515 Seconds

WARNING REPORT:

  1. SFR Package SFR_0 has 2 reach(es) with zero connections.
  2. NONLINEAR BLOCK VARIABLE 'OUTER_HCLOSE' IN FILE 'mfsim.ims' WAS
     DEPRECATED IN VERSION 6.1.1. SETTING OUTER_DVCLOSE TO OUTER_HCLOSE VALUE.
  3. NONLINEAR BLOCK VARIABLE 'OUTER_RCLOSEBND' IN FILE 'mfsim.ims' WAS
     DEPRECATED IN VERSION 6.1.1. OUTER_DVCLOSE IS USED TO EVALUATE PACKAGE
     CONVERGENCE.
  4. LINEAR BLOCK VARIABLE 'INNER_HCLOSE' IN FILE 'mfsim.ims' WAS DEPRECATED
     IN VERSION 6.1.1. SETTING INNER_DVCLOSE TO INNER_HCLOSE VALUE.
 Normal termination of simulation.
