                                   MODFLOW 6
                U.S. GEOLOGICAL SURVEY MODULAR HYDROLOGIC MODEL
                          GROUNDWATER FLOW MODEL (GWF)
                            VERSION 6.2.1 02/18/2021

   MODFLOW 6 compiled Feb 18 2021 16:47:24 with IFORT compiler (ver. 19.10.3)

This software has been approved for release by the U.S. Geological 
Survey (USGS). Although the software has been subjected to rigorous 
review, the USGS reserves the right to update the software as needed 
pursuant to further analysis and review. No warranty, expressed or 
implied, is made by the USGS or the U.S. Government as to the 
functionality of the software and related material nor shall the 
fact of release constitute any such warranty. Furthermore, the 
software is released on condition that neither the USGS nor the U.S. 
Government shall be held liable for any damages resulting from its 
authorized or unauthorized use. Also refer to the USGS Water 
Resources Software User Rights Notice for complete use, copyright, 
and distribution information.


System command used to initiate simulation:
/Users/mnfienen/Documents/bin/mac/mf6

MODFLOW was compiled using uniform precision.

Real Variables
  KIND: 8
  TINY (smallest non-zero value):    2.225074-308
  HUGE (largest value):    1.797693+308
  PRECISION: 15
  BIT SIZE: 64

Integer Variables
  KIND: 4
  HUGE (largest value): 2147483647
  BIT SIZE: 32

Long Integer Variables
  KIND: 8
  HUGE (largest value): 9223372036854775807
  BIT SIZE: 64

Logical Variables
  KIND: 4
  BIT SIZE: 32
 

 OPENED shellmound.dis
 FILE TYPE:DIS6                   UNIT 1005   STATUS:OLD                 
 FORMAT:FORMATTED              ACCESS:SEQUENTIAL          
 ACTION:READ                


 OPENED shellmound.ic
 FILE TYPE:IC6                    UNIT 1006   STATUS:OLD                 
 FORMAT:FORMATTED              ACCESS:SEQUENTIAL          
 ACTION:READ                


 OPENED shellmound.npf
 FILE TYPE:NPF6                   UNIT 1007   STATUS:OLD                 
 FORMAT:FORMATTED              ACCESS:SEQUENTIAL          
 ACTION:READ                


 OPENED shellmound.sto
 FILE TYPE:STO6                   UNIT 1008   STATUS:OLD                 
 FORMAT:FORMATTED              ACCESS:SEQUENTIAL          
 ACTION:READ                


 OPENED shellmound.rcha
 FILE TYPE:RCH6                   UNIT 1009   STATUS:OLD                 
 FORMAT:FORMATTED              ACCESS:SEQUENTIAL          
 ACTION:READ                


 OPENED shellmound.oc
 FILE TYPE:OC6                    UNIT 1010   STATUS:OLD                 
 FORMAT:FORMATTED              ACCESS:SEQUENTIAL          
 ACTION:READ                


 OPENED shellmound.sfr
 FILE TYPE:SFR6                   UNIT 1011   STATUS:OLD                 
 FORMAT:FORMATTED              ACCESS:SEQUENTIAL          
 ACTION:READ                


 OPENED shellmound.wel
 FILE TYPE:WEL6                   UNIT 1012   STATUS:OLD                 
 FORMAT:FORMATTED              ACCESS:SEQUENTIAL          
 ACTION:READ                


 OPENED shellmound.obs
 FILE TYPE:OBS6                   UNIT 1013   STATUS:OLD                 
 FORMAT:FORMATTED              ACCESS:SEQUENTIAL          
 ACTION:READ                

 NAMEFILE OPTIONS:
    STRESS PACKAGE INPUT WILL BE PRINTED FOR ALL MODEL STRESS PACKAGES
    FLOWS WILL BE SAVED TO BUDGET FILE SPECIFIED IN OUTPUT CONTROL
    NEWTON-RAPHSON method enabled for the model.

 DIS -- STRUCTURED GRID DISCRETIZATION PACKAGE, VERSION 2 : 3/27/2014 - INPUT READ FROM UNIT 1005


 PROCESSING DISCRETIZATION OPTIONS
    MODEL LENGTH UNIT IS METERS
    XORIGIN SPECIFIED AS     500955.000000000    
    YORIGIN SPECIFIED AS     1175285.00000000    
    ANGROT SPECIFIED AS     0.00000000000000    
 END OF DISCRETIZATION OPTIONS
 PROCESSING DISCRETIZATION DIMENSIONS
    NLAY =      13
    NROW =      30
    NCOL =      35
 END OF DISCRETIZATION DIMENSIONS
 PROCESSING GRIDDATA

                     DELR =   1000.000    

                     DELC =   1000.000    

 OPENED ./external/top.dat
 FILE TYPE:OPEN/CLOSE   UNIT 1015   STATUS:OLD                 
 FORMAT:FORMATTED              ACCESS:SEQUENTIAL          
 ACTION:READ                


 OPENED ./external/botm0.dat
 FILE TYPE:OPEN/CLOSE   UNIT 1016   STATUS:OLD                 
 FORMAT:FORMATTED              ACCESS:SEQUENTIAL          
 ACTION:READ                


 OPENED ./external/botm1.dat
 FILE TYPE:OPEN/CLOSE   UNIT 1017   STATUS:OLD                 
 FORMAT:FORMATTED              ACCESS:SEQUENTIAL          
 ACTION:READ                


 OPENED ./external/botm2.dat
 FILE TYPE:OPEN/CLOSE   UNIT 1018   STATUS:OLD                 
 FORMAT:FORMATTED              ACCESS:SEQUENTIAL          
 ACTION:READ                


 OPENED ./external/botm3.dat
 FILE TYPE:OPEN/CLOSE   UNIT 1019   STATUS:OLD                 
 FORMAT:FORMATTED              ACCESS:SEQUENTIAL          
 ACTION:READ                


 OPENED ./external/botm4.dat
 FILE TYPE:OPEN/CLOSE   UNIT 1020   STATUS:OLD                 
 FORMAT:FORMATTED              ACCESS:SEQUENTIAL          
 ACTION:READ                


 OPENED ./external/botm5.dat
 FILE TYPE:OPEN/CLOSE   UNIT 1021   STATUS:OLD                 
 FORMAT:FORMATTED              ACCESS:SEQUENTIAL          
 ACTION:READ                


 OPENED ./external/botm6.dat
 FILE TYPE:OPEN/CLOSE   UNIT 1022   STATUS:OLD                 
 FORMAT:FORMATTED              ACCESS:SEQUENTIAL          
 ACTION:READ                


 OPENED ./external/botm7.dat
 FILE TYPE:OPEN/CLOSE   UNIT 1023   STATUS:OLD                 
 FORMAT:FORMATTED              ACCESS:SEQUENTIAL          
 ACTION:READ                


 OPENED ./external/botm8.dat
 FILE TYPE:OPEN/CLOSE   UNIT 1024   STATUS:OLD                 
 FORMAT:FORMATTED              ACCESS:SEQUENTIAL          
 ACTION:READ                


 OPENED ./external/botm9.dat
 FILE TYPE:OPEN/CLOSE   UNIT 1025   STATUS:OLD                 
 FORMAT:FORMATTED              ACCESS:SEQUENTIAL          
 ACTION:READ                


 OPENED ./external/botm10.dat
 FILE TYPE:OPEN/CLOSE   UNIT 1026   STATUS:OLD                 
 FORMAT:FORMATTED              ACCESS:SEQUENTIAL          
 ACTION:READ                


 OPENED ./external/botm11.dat
 FILE TYPE:OPEN/CLOSE   UNIT 1027   STATUS:OLD                 
 FORMAT:FORMATTED              ACCESS:SEQUENTIAL          
 ACTION:READ                


 OPENED ./external/botm12.dat
 FILE TYPE:OPEN/CLOSE   UNIT 1028   STATUS:OLD                 
 FORMAT:FORMATTED              ACCESS:SEQUENTIAL          
 ACTION:READ                


 OPENED ./external/idomain0.dat
 FILE TYPE:OPEN/CLOSE   UNIT 1029   STATUS:OLD                 
 FORMAT:FORMATTED              ACCESS:SEQUENTIAL          
 ACTION:READ                


 OPENED ./external/idomain1.dat
 FILE TYPE:OPEN/CLOSE   UNIT 1030   STATUS:OLD                 
 FORMAT:FORMATTED              ACCESS:SEQUENTIAL          
 ACTION:READ                


 OPENED ./external/idomain2.dat
 FILE TYPE:OPEN/CLOSE   UNIT 1031   STATUS:OLD                 
 FORMAT:FORMATTED              ACCESS:SEQUENTIAL          
 ACTION:READ                


 OPENED ./external/idomain3.dat
 FILE TYPE:OPEN/CLOSE   UNIT 1032   STATUS:OLD                 
 FORMAT:FORMATTED              ACCESS:SEQUENTIAL          
 ACTION:READ                


 OPENED ./external/idomain4.dat
 FILE TYPE:OPEN/CLOSE   UNIT 1033   STATUS:OLD                 
 FORMAT:FORMATTED              ACCESS:SEQUENTIAL          
 ACTION:READ                


 OPENED ./external/idomain5.dat
 FILE TYPE:OPEN/CLOSE   UNIT 1034   STATUS:OLD                 
 FORMAT:FORMATTED              ACCESS:SEQUENTIAL          
 ACTION:READ                


 OPENED ./external/idomain6.dat
 FILE TYPE:OPEN/CLOSE   UNIT 1035   STATUS:OLD                 
 FORMAT:FORMATTED              ACCESS:SEQUENTIAL          
 ACTION:READ                


 OPENED ./external/idomain7.dat
 FILE TYPE:OPEN/CLOSE   UNIT 1036   STATUS:OLD                 
 FORMAT:FORMATTED              ACCESS:SEQUENTIAL          
 ACTION:READ                


 OPENED ./external/idomain8.dat
 FILE TYPE:OPEN/CLOSE   UNIT 1037   STATUS:OLD                 
 FORMAT:FORMATTED              ACCESS:SEQUENTIAL          
 ACTION:READ                


 OPENED ./external/idomain9.dat
 FILE TYPE:OPEN/CLOSE   UNIT 1038   STATUS:OLD                 
 FORMAT:FORMATTED              ACCESS:SEQUENTIAL          
 ACTION:READ                


 OPENED ./external/idomain10.dat
 FILE TYPE:OPEN/CLOSE   UNIT 1039   STATUS:OLD                 
 FORMAT:FORMATTED              ACCESS:SEQUENTIAL          
 ACTION:READ                


 OPENED ./external/idomain11.dat
 FILE TYPE:OPEN/CLOSE   UNIT 1040   STATUS:OLD                 
 FORMAT:FORMATTED              ACCESS:SEQUENTIAL          
 ACTION:READ                


 OPENED ./external/idomain12.dat
 FILE TYPE:OPEN/CLOSE   UNIT 1041   STATUS:OLD                 
 FORMAT:FORMATTED              ACCESS:SEQUENTIAL          
 ACTION:READ                

 END PROCESSING GRIDDATA

 THE SPECIFIED IDOMAIN RESULTS IN A REDUCED NUMBER OF CELLS.
 NUMBER OF USER NODES: 13650
 NUMBER OF NODES IN SOLUTION: 9096



 NPF -- NODE PROPERTY FLOW PACKAGE, VERSION 1, 3/30/2015 INPUT READ FROM UNIT 1007


 PROCESSING NPF OPTIONS
    CELL-BY-CELL FLOW INFORMATION WILL BE SAVED TO BINARY FILE WHENEVER ICBCFL IS NOT ZERO.
 END OF NPF OPTIONS

 WEL   -- WEL PACKAGE, VERSION 8, 2/22/2014 INPUT READ FROM UNIT 1012

 PROCESSING WEL OPTIONS
    WEL BOUNDARIES HAVE NAMES IN LAST COLUMN.
    LISTS OF WEL CELLS WILL BE PRINTED.
    WEL FLOWS WILL BE PRINTED TO LISTING FILE.
    FLOWS WILL BE SAVED TO BUDGET FILE SPECIFIED IN OUTPUT CONTROL
 END OF WEL OPTIONS

 PROCESSING WEL DIMENSIONS
    MAXBOUND =     340
 END OF WEL DIMENSIONS

 RCH   -- RCH PACKAGE, VERSION 8, 2/22/2014 INPUT READ FROM UNIT 1009

 PROCESSING RCH OPTIONS
    RECHARGE INPUT WILL BE READ AS ARRAY(S).
    LISTS OF RCH CELLS WILL BE PRINTED.
    FLOWS WILL BE SAVED TO BUDGET FILE SPECIFIED IN OUTPUT CONTROL
 END OF RCH OPTIONS

 SFR   -- SFR PACKAGE, VERSION 8, 2/22/2014 INPUT READ FROM UNIT 1011
 # MODFLOW-6 SFR input; created by SFRmaker v. 0.4.0.post1+g74510a9

 PROCESSING SFR OPTIONS
    FLOWS WILL BE SAVED TO BUDGET FILE SPECIFIED IN OUTPUT CONTROL

 OPENED shellmound.sfr.cbc
 FILE TYPE:DATA(BINARY)   UNIT 1042   STATUS:REPLACE             
 FORMAT:UNFORMATTED            ACCESS:STREAM              
 ACTION:READWRITE           

    SFR  BUDGET  WILL BE SAVED TO FILE: shellmound.sfr.cbc                                                                                                                                                                                                                                                                                                                                                                                                                                                                                                                                                                                                                                                                                                                                                                                                                                                                                                                                                                                                                                                                                                                                                                                                                                                                                                                                                                                                                                                                                                                                                                                                                                                                                                                                                                                                                                                                                                                                                                                                                                                                                                                                                                                                                                                                                                                                                                                                                                                                                                                                                                                                                                                                                                                                                                                                                                                                                                                                                                                                                                                                                                                                                                                                                                                                                                                                                                                                                                                                                                                                                                                                                                                                                                                                                                                                                                                                                                                                                                                                                                                                                                                                                                                                                                                                                                                                                                                                                                                                                                                                                                                                                                                                                                                                                                                                                                                                                                                                                                                                                                                                                                                                                                                      
    OPENED ON UNIT:    1042

 OPENED shellmound.sfr.stage.bin
 FILE TYPE:DATA(BINARY)   UNIT 1043   STATUS:REPLACE             
 FORMAT:UNFORMATTED            ACCESS:STREAM              
 ACTION:READWRITE           

    SFR  STAGE  WILL BE SAVED TO FILE: shellmound.sfr.stage.bin                                                                                                                                                                                                                                                                                                                                                                                                                                                                                                                                                                                                                                                                                                                                                                                                                                                                                                                                                                                                                                                                                                                                                                                                                                                                                                                                                                                                                                                                                                                                                                                                                                                                                                                                                                                                                                                                                                                                                                                                                                                                                                                                                                                                                                                                                                                                                                                                                                                                                                                                                                                                                                                                                                                                                                                                                                                                                                                                                                                                                                                                                                                                                                                                                                                                                                                                                                                                                                                                                                                                                                                                                                                                                                                                                                                                                                                                                                                                                                                                                                                                                                                                                                                                                                                                                                                                                                                                                                                                                                                                                                                                                                                                                                                                                                                                                                                                                                                                                                                                                                                                                                                                                                                
    OPENED ON UNIT:    1043
    UNIT CONVERSION VALUE (86400.00000000000) SPECIFIED.
 END OF SFR OPTIONS

 PROCESSING SFR DIMENSIONS
    NREACHES = 362
 END OF SFR DIMENSIONS
 #rno k i j rlen rwid rgrd rtp rbth rhk man ncon ustrf ndv

 PROCESSING SFR PACKAGEDATA
 END OF SFR PACKAGEDATA

 PROCESSING SFR CONNECTIONDATA
 END OF SFR CONNECTIONDATA

 IC -- INITIAL CONDITIONS PACKAGE, VERSION 8, 3/28/2015 INPUT READ FROM UNIT 1006
 PROCESSING GRIDDATA

 OPENED ./external/strt0.dat
 FILE TYPE:OPEN/CLOSE   UNIT 1044   STATUS:OLD                 
 FORMAT:FORMATTED              ACCESS:SEQUENTIAL          
 ACTION:READ                


 OPENED ./external/strt1.dat
 FILE TYPE:OPEN/CLOSE   UNIT 1045   STATUS:OLD                 
 FORMAT:FORMATTED              ACCESS:SEQUENTIAL          
 ACTION:READ                


 OPENED ./external/strt2.dat
 FILE TYPE:OPEN/CLOSE   UNIT 1046   STATUS:OLD                 
 FORMAT:FORMATTED              ACCESS:SEQUENTIAL          
 ACTION:READ                


 OPENED ./external/strt3.dat
 FILE TYPE:OPEN/CLOSE   UNIT 1047   STATUS:OLD                 
 FORMAT:FORMATTED              ACCESS:SEQUENTIAL          
 ACTION:READ                


 OPENED ./external/strt4.dat
 FILE TYPE:OPEN/CLOSE   UNIT 1048   STATUS:OLD                 
 FORMAT:FORMATTED              ACCESS:SEQUENTIAL          
 ACTION:READ                


 OPENED ./external/strt5.dat
 FILE TYPE:OPEN/CLOSE   UNIT 1049   STATUS:OLD                 
 FORMAT:FORMATTED              ACCESS:SEQUENTIAL          
 ACTION:READ                


 OPENED ./external/strt6.dat
 FILE TYPE:OPEN/CLOSE   UNIT 1050   STATUS:OLD                 
 FORMAT:FORMATTED              ACCESS:SEQUENTIAL          
 ACTION:READ                


 OPENED ./external/strt7.dat
 FILE TYPE:OPEN/CLOSE   UNIT 1051   STATUS:OLD                 
 FORMAT:FORMATTED              ACCESS:SEQUENTIAL          
 ACTION:READ                


 OPENED ./external/strt8.dat
 FILE TYPE:OPEN/CLOSE   UNIT 1052   STATUS:OLD                 
 FORMAT:FORMATTED              ACCESS:SEQUENTIAL          
 ACTION:READ                


 OPENED ./external/strt9.dat
 FILE TYPE:OPEN/CLOSE   UNIT 1053   STATUS:OLD                 
 FORMAT:FORMATTED              ACCESS:SEQUENTIAL          
 ACTION:READ                


 OPENED ./external/strt10.dat
 FILE TYPE:OPEN/CLOSE   UNIT 1054   STATUS:OLD                 
 FORMAT:FORMATTED              ACCESS:SEQUENTIAL          
 ACTION:READ                


 OPENED ./external/strt11.dat
 FILE TYPE:OPEN/CLOSE   UNIT 1055   STATUS:OLD                 
 FORMAT:FORMATTED              ACCESS:SEQUENTIAL          
 ACTION:READ                


 OPENED ./external/strt12.dat
 FILE TYPE:OPEN/CLOSE   UNIT 1056   STATUS:OLD                 
 FORMAT:FORMATTED              ACCESS:SEQUENTIAL          
 ACTION:READ                

 END PROCESSING GRIDDATA
 PROCESSING GRIDDATA

                ICELLTYPE = 1

 OPENED ./external/k0.dat
 FILE TYPE:OPEN/CLOSE   UNIT 1057   STATUS:OLD                 
 FORMAT:FORMATTED              ACCESS:SEQUENTIAL          
 ACTION:READ                


 OPENED ./external/k1.dat
 FILE TYPE:OPEN/CLOSE   UNIT 1058   STATUS:OLD                 
 FORMAT:FORMATTED              ACCESS:SEQUENTIAL          
 ACTION:READ                


 OPENED ./external/k2.dat
 FILE TYPE:OPEN/CLOSE   UNIT 1059   STATUS:OLD                 
 FORMAT:FORMATTED              ACCESS:SEQUENTIAL          
 ACTION:READ                


 OPENED ./external/k3.dat
 FILE TYPE:OPEN/CLOSE   UNIT 1060   STATUS:OLD                 
 FORMAT:FORMATTED              ACCESS:SEQUENTIAL          
 ACTION:READ                


 OPENED ./external/k4.dat
 FILE TYPE:OPEN/CLOSE   UNIT 1061   STATUS:OLD                 
 FORMAT:FORMATTED              ACCESS:SEQUENTIAL          
 ACTION:READ                


 OPENED ./external/k5.dat
 FILE TYPE:OPEN/CLOSE   UNIT 1062   STATUS:OLD                 
 FORMAT:FORMATTED              ACCESS:SEQUENTIAL          
 ACTION:READ                


 OPENED ./external/k6.dat
 FILE TYPE:OPEN/CLOSE   UNIT 1063   STATUS:OLD                 
 FORMAT:FORMATTED              ACCESS:SEQUENTIAL          
 ACTION:READ                


 OPENED ./external/k7.dat
 FILE TYPE:OPEN/CLOSE   UNIT 1064   STATUS:OLD                 
 FORMAT:FORMATTED              ACCESS:SEQUENTIAL          
 ACTION:READ                


 OPENED ./external/k8.dat
 FILE TYPE:OPEN/CLOSE   UNIT 1065   STATUS:OLD                 
 FORMAT:FORMATTED              ACCESS:SEQUENTIAL          
 ACTION:READ                


 OPENED ./external/k9.dat
 FILE TYPE:OPEN/CLOSE   UNIT 1066   STATUS:OLD                 
 FORMAT:FORMATTED              ACCESS:SEQUENTIAL          
 ACTION:READ                


 OPENED ./external/k10.dat
 FILE TYPE:OPEN/CLOSE   UNIT 1067   STATUS:OLD                 
 FORMAT:FORMATTED              ACCESS:SEQUENTIAL          
 ACTION:READ                


 OPENED ./external/k11.dat
 FILE TYPE:OPEN/CLOSE   UNIT 1068   STATUS:OLD                 
 FORMAT:FORMATTED              ACCESS:SEQUENTIAL          
 ACTION:READ                


 OPENED ./external/k12.dat
 FILE TYPE:OPEN/CLOSE   UNIT 1069   STATUS:OLD                 
 FORMAT:FORMATTED              ACCESS:SEQUENTIAL          
 ACTION:READ                


 OPENED ./external/k330.dat
 FILE TYPE:OPEN/CLOSE   UNIT 1070   STATUS:OLD                 
 FORMAT:FORMATTED              ACCESS:SEQUENTIAL          
 ACTION:READ                


 OPENED ./external/k331.dat
 FILE TYPE:OPEN/CLOSE   UNIT 1071   STATUS:OLD                 
 FORMAT:FORMATTED              ACCESS:SEQUENTIAL          
 ACTION:READ                


 OPENED ./external/k332.dat
 FILE TYPE:OPEN/CLOSE   UNIT 1072   STATUS:OLD                 
 FORMAT:FORMATTED              ACCESS:SEQUENTIAL          
 ACTION:READ                


 OPENED ./external/k333.dat
 FILE TYPE:OPEN/CLOSE   UNIT 1073   STATUS:OLD                 
 FORMAT:FORMATTED              ACCESS:SEQUENTIAL          
 ACTION:READ                


 OPENED ./external/k334.dat
 FILE TYPE:OPEN/CLOSE   UNIT 1074   STATUS:OLD                 
 FORMAT:FORMATTED              ACCESS:SEQUENTIAL          
 ACTION:READ                


 OPENED ./external/k335.dat
 FILE TYPE:OPEN/CLOSE   UNIT 1075   STATUS:OLD                 
 FORMAT:FORMATTED              ACCESS:SEQUENTIAL          
 ACTION:READ                


 OPENED ./external/k336.dat
 FILE TYPE:OPEN/CLOSE   UNIT 1076   STATUS:OLD                 
 FORMAT:FORMATTED              ACCESS:SEQUENTIAL          
 ACTION:READ                


 OPENED ./external/k337.dat
 FILE TYPE:OPEN/CLOSE   UNIT 1077   STATUS:OLD                 
 FORMAT:FORMATTED              ACCESS:SEQUENTIAL          
 ACTION:READ                


 OPENED ./external/k338.dat
 FILE TYPE:OPEN/CLOSE   UNIT 1078   STATUS:OLD                 
 FORMAT:FORMATTED              ACCESS:SEQUENTIAL          
 ACTION:READ                


 OPENED ./external/k339.dat
 FILE TYPE:OPEN/CLOSE   UNIT 1079   STATUS:OLD                 
 FORMAT:FORMATTED              ACCESS:SEQUENTIAL          
 ACTION:READ                


 OPENED ./external/k3310.dat
 FILE TYPE:OPEN/CLOSE   UNIT 1080   STATUS:OLD                 
 FORMAT:FORMATTED              ACCESS:SEQUENTIAL          
 ACTION:READ                


 OPENED ./external/k3311.dat
 FILE TYPE:OPEN/CLOSE   UNIT 1081   STATUS:OLD                 
 FORMAT:FORMATTED              ACCESS:SEQUENTIAL          
 ACTION:READ                


 OPENED ./external/k3312.dat
 FILE TYPE:OPEN/CLOSE   UNIT 1082   STATUS:OLD                 
 FORMAT:FORMATTED              ACCESS:SEQUENTIAL          
 ACTION:READ                

 K22 not provided.  Assuming K22 = K.
 END PROCESSING GRIDDATA

 STO -- STORAGE PACKAGE, VERSION 1, 5/19/2014 INPUT READ FROM UNIT 1008


 PROCESSING STORAGE OPTIONS
    CELL-BY-CELL FLOW INFORMATION WILL BE SAVED TO BINARY FILE WHENEVER ICBCFL IS NOT ZERO.
 END OF STORAGE OPTIONS
 PROCESSING GRIDDATA

                 ICONVERT = 1

 OPENED ./external/ss0.dat
 FILE TYPE:OPEN/CLOSE   UNIT 1083   STATUS:OLD                 
 FORMAT:FORMATTED              ACCESS:SEQUENTIAL          
 ACTION:READ                


 OPENED ./external/ss1.dat
 FILE TYPE:OPEN/CLOSE   UNIT 1084   STATUS:OLD                 
 FORMAT:FORMATTED              ACCESS:SEQUENTIAL          
 ACTION:READ                


 OPENED ./external/ss2.dat
 FILE TYPE:OPEN/CLOSE   UNIT 1085   STATUS:OLD                 
 FORMAT:FORMATTED              ACCESS:SEQUENTIAL          
 ACTION:READ                


 OPENED ./external/ss3.dat
 FILE TYPE:OPEN/CLOSE   UNIT 1086   STATUS:OLD                 
 FORMAT:FORMATTED              ACCESS:SEQUENTIAL          
 ACTION:READ                


 OPENED ./external/ss4.dat
 FILE TYPE:OPEN/CLOSE   UNIT 1087   STATUS:OLD                 
 FORMAT:FORMATTED              ACCESS:SEQUENTIAL          
 ACTION:READ                


 OPENED ./external/ss5.dat
 FILE TYPE:OPEN/CLOSE   UNIT 1088   STATUS:OLD                 
 FORMAT:FORMATTED              ACCESS:SEQUENTIAL          
 ACTION:READ                


 OPENED ./external/ss6.dat
 FILE TYPE:OPEN/CLOSE   UNIT 1089   STATUS:OLD                 
 FORMAT:FORMATTED              ACCESS:SEQUENTIAL          
 ACTION:READ                


 OPENED ./external/ss7.dat
 FILE TYPE:OPEN/CLOSE   UNIT 1090   STATUS:OLD                 
 FORMAT:FORMATTED              ACCESS:SEQUENTIAL          
 ACTION:READ                


 OPENED ./external/ss8.dat
 FILE TYPE:OPEN/CLOSE   UNIT 1091   STATUS:OLD                 
 FORMAT:FORMATTED              ACCESS:SEQUENTIAL          
 ACTION:READ                


 OPENED ./external/ss9.dat
 FILE TYPE:OPEN/CLOSE   UNIT 1092   STATUS:OLD                 
 FORMAT:FORMATTED              ACCESS:SEQUENTIAL          
 ACTION:READ                


 OPENED ./external/ss10.dat
 FILE TYPE:OPEN/CLOSE   UNIT 1093   STATUS:OLD                 
 FORMAT:FORMATTED              ACCESS:SEQUENTIAL          
 ACTION:READ                


 OPENED ./external/ss11.dat
 FILE TYPE:OPEN/CLOSE   UNIT 1094   STATUS:OLD                 
 FORMAT:FORMATTED              ACCESS:SEQUENTIAL          
 ACTION:READ                


 OPENED ./external/ss12.dat
 FILE TYPE:OPEN/CLOSE   UNIT 1095   STATUS:OLD                 
 FORMAT:FORMATTED              ACCESS:SEQUENTIAL          
 ACTION:READ                


 OPENED ./external/sy0.dat
 FILE TYPE:OPEN/CLOSE   UNIT 1096   STATUS:OLD                 
 FORMAT:FORMATTED              ACCESS:SEQUENTIAL          
 ACTION:READ                


 OPENED ./external/sy1.dat
 FILE TYPE:OPEN/CLOSE   UNIT 1097   STATUS:OLD                 
 FORMAT:FORMATTED              ACCESS:SEQUENTIAL          
 ACTION:READ                


 OPENED ./external/sy2.dat
 FILE TYPE:OPEN/CLOSE   UNIT 1098   STATUS:OLD                 
 FORMAT:FORMATTED              ACCESS:SEQUENTIAL          
 ACTION:READ                


 OPENED ./external/sy3.dat
 FILE TYPE:OPEN/CLOSE   UNIT 1099   STATUS:OLD                 
 FORMAT:FORMATTED              ACCESS:SEQUENTIAL          
 ACTION:READ                


 OPENED ./external/sy4.dat
 FILE TYPE:OPEN/CLOSE   UNIT 1100   STATUS:OLD                 
 FORMAT:FORMATTED              ACCESS:SEQUENTIAL          
 ACTION:READ                


 OPENED ./external/sy5.dat
 FILE TYPE:OPEN/CLOSE   UNIT 1101   STATUS:OLD                 
 FORMAT:FORMATTED              ACCESS:SEQUENTIAL          
 ACTION:READ                


 OPENED ./external/sy6.dat
 FILE TYPE:OPEN/CLOSE   UNIT 1102   STATUS:OLD                 
 FORMAT:FORMATTED              ACCESS:SEQUENTIAL          
 ACTION:READ                


 OPENED ./external/sy7.dat
 FILE TYPE:OPEN/CLOSE   UNIT 1103   STATUS:OLD                 
 FORMAT:FORMATTED              ACCESS:SEQUENTIAL          
 ACTION:READ                


 OPENED ./external/sy8.dat
 FILE TYPE:OPEN/CLOSE   UNIT 1104   STATUS:OLD                 
 FORMAT:FORMATTED              ACCESS:SEQUENTIAL          
 ACTION:READ                


 OPENED ./external/sy9.dat
 FILE TYPE:OPEN/CLOSE   UNIT 1105   STATUS:OLD                 
 FORMAT:FORMATTED              ACCESS:SEQUENTIAL          
 ACTION:READ                


 OPENED ./external/sy10.dat
 FILE TYPE:OPEN/CLOSE   UNIT 1106   STATUS:OLD                 
 FORMAT:FORMATTED              ACCESS:SEQUENTIAL          
 ACTION:READ                


 OPENED ./external/sy11.dat
 FILE TYPE:OPEN/CLOSE   UNIT 1107   STATUS:OLD                 
 FORMAT:FORMATTED              ACCESS:SEQUENTIAL          
 ACTION:READ                


 OPENED ./external/sy12.dat
 FILE TYPE:OPEN/CLOSE   UNIT 1108   STATUS:OLD                 
 FORMAT:FORMATTED              ACCESS:SEQUENTIAL          
 ACTION:READ                

 END PROCESSING GRIDDATA

The observation utility is active for "SHELLMOUND"

Processing observation options:

Text output number of digits of precision set to: 10
The PRINT_INPUT option has been specified.


 OBSERVATIONS READ FROM FILE "shellmound.obs"
 ----------------------------------------------------------------------------------------------------------------------------------------------------------------------------------------------------------------------------
 NAME                                     TYPE                                       TIME         LOCATION DATA                              OUTPUT FILENAME                                                                 
 ----------------------------------------------------------------------------------------------------------------------------------------------------------------------------------------------------------------------------
 3131090171601                            CONTINUOUS  HEAD                           ALL TIMES    "4 27 28"                                  shellmound.head.obs                                                             
 3131090171601                            CONTINUOUS  HEAD                           ALL TIMES    "5 27 28"                                  shellmound.head.obs                                                             
 3131090171601                            CONTINUOUS  HEAD                           ALL TIMES    "6 27 28"                                  shellmound.head.obs                                                             
 3131090171601                            CONTINUOUS  HEAD                           ALL TIMES    "7 27 28"                                  shellmound.head.obs                                                             
 3131090171601                            CONTINUOUS  HEAD                           ALL TIMES    "8 27 28"                                  shellmound.head.obs                                                             
 3131090171601                            CONTINUOUS  HEAD                           ALL TIMES    "9 27 28"                                  shellmound.head.obs                                                             
 3131090171601                            CONTINUOUS  HEAD                           ALL TIMES    "10 27 28"                                 shellmound.head.obs                                                             
 3131090171601                            CONTINUOUS  HEAD                           ALL TIMES    "11 27 28"                                 shellmound.head.obs                                                             
 3131090171601                            CONTINUOUS  HEAD                           ALL TIMES    "12 27 28"                                 shellmound.head.obs                                                             
 3131090171601                            CONTINUOUS  HEAD                           ALL TIMES    "13 27 28"                                 shellmound.head.obs                                                             
 3144090145401                            CONTINUOUS  HEAD                           ALL TIMES    "4 27 30"                                  shellmound.head.obs                                                             
 3144090145401                            CONTINUOUS  HEAD                           ALL TIMES    "5 27 30"                                  shellmound.head.obs                                                             
 3144090145401                            CONTINUOUS  HEAD                           ALL TIMES    "6 27 30"                                  shellmound.head.obs                                                             
 3144090145401                            CONTINUOUS  HEAD                           ALL TIMES    "7 27 30"                                  shellmound.head.obs                                                             
 3144090145401                            CONTINUOUS  HEAD                           ALL TIMES    "8 27 30"                                  shellmound.head.obs                                                             
 3144090145401                            CONTINUOUS  HEAD                           ALL TIMES    "9 27 30"                                  shellmound.head.obs                                                             
 3144090145401                            CONTINUOUS  HEAD                           ALL TIMES    "10 27 30"                                 shellmound.head.obs                                                             
 3144090145401                            CONTINUOUS  HEAD                           ALL TIMES    "11 27 30"                                 shellmound.head.obs                                                             
 3144090145401                            CONTINUOUS  HEAD                           ALL TIMES    "12 27 30"                                 shellmound.head.obs                                                             
 3144090145401                            CONTINUOUS  HEAD                           ALL TIMES    "13 27 30"                                 shellmound.head.obs                                                             
 3148090142501                            CONTINUOUS  HEAD                           ALL TIMES    "4 27 31"                                  shellmound.head.obs                                                             
 3148090142501                            CONTINUOUS  HEAD                           ALL TIMES    "5 27 31"                                  shellmound.head.obs                                                             
 3148090142501                            CONTINUOUS  HEAD                           ALL TIMES    "6 27 31"                                  shellmound.head.obs                                                             
 3148090142501                            CONTINUOUS  HEAD                           ALL TIMES    "7 27 31"                                  shellmound.head.obs                                                             
 3148090142501                            CONTINUOUS  HEAD                           ALL TIMES    "8 27 31"                                  shellmound.head.obs                                                             
 3148090142501                            CONTINUOUS  HEAD                           ALL TIMES    "9 27 31"                                  shellmound.head.obs                                                             
 3148090142501                            CONTINUOUS  HEAD                           ALL TIMES    "10 27 31"                                 shellmound.head.obs                                                             
 3148090142501                            CONTINUOUS  HEAD                           ALL TIMES    "11 27 31"                                 shellmound.head.obs                                                             
 3148090142501                            CONTINUOUS  HEAD                           ALL TIMES    "12 27 31"                                 shellmound.head.obs                                                             
 3148090142501                            CONTINUOUS  HEAD                           ALL TIMES    "13 27 31"                                 shellmound.head.obs                                                             
 3154090175201                            CONTINUOUS  HEAD                           ALL TIMES    "4 27 25"                                  shellmound.head.obs                                                             
 3154090175201                            CONTINUOUS  HEAD                           ALL TIMES    "5 27 25"                                  shellmound.head.obs                                                             
 3154090175201                            CONTINUOUS  HEAD                           ALL TIMES    "6 27 25"                                  shellmound.head.obs                                                             
 3154090175201                            CONTINUOUS  HEAD                           ALL TIMES    "7 27 25"                                  shellmound.head.obs                                                             
 3154090175201                            CONTINUOUS  HEAD                           ALL TIMES    "8 27 25"                                  shellmound.head.obs                                                             
 3154090175201                            CONTINUOUS  HEAD                           ALL TIMES    "9 27 25"                                  shellmound.head.obs                                                             
 3154090175201                            CONTINUOUS  HEAD                           ALL TIMES    "10 27 25"                                 shellmound.head.obs                                                             
 3154090175201                            CONTINUOUS  HEAD                           ALL TIMES    "11 27 25"                                 shellmound.head.obs                                                             
 3154090175201                            CONTINUOUS  HEAD                           ALL TIMES    "12 27 25"                                 shellmound.head.obs                                                             
 3154090175201                            CONTINUOUS  HEAD                           ALL TIMES    "13 27 25"                                 shellmound.head.obs                                                             
 3154090183901                            CONTINUOUS  HEAD                           ALL TIMES    "4 27 24"                                  shellmound.head.obs                                                             
 3154090183901                            CONTINUOUS  HEAD                           ALL TIMES    "5 27 24"                                  shellmound.head.obs                                                             
 3154090183901                            CONTINUOUS  HEAD                           ALL TIMES    "6 27 24"                                  shellmound.head.obs                                                             
 3154090183901                            CONTINUOUS  HEAD                           ALL TIMES    "7 27 24"                                  shellmound.head.obs                                                             
 3154090183901                            CONTINUOUS  HEAD                           ALL TIMES    "8 27 24"                                  shellmound.head.obs                                                             
 3154090183901                            CONTINUOUS  HEAD                           ALL TIMES    "9 27 24"                                  shellmound.head.obs                                                             
 3154090183901                            CONTINUOUS  HEAD                           ALL TIMES    "10 27 24"                                 shellmound.head.obs                                                             
 3154090183901                            CONTINUOUS  HEAD                           ALL TIMES    "11 27 24"                                 shellmound.head.obs                                                             
 3154090183901                            CONTINUOUS  HEAD                           ALL TIMES    "12 27 24"                                 shellmound.head.obs                                                             
 3154090183901                            CONTINUOUS  HEAD                           ALL TIMES    "13 27 24"                                 shellmound.head.obs                                                             
 3157090185501                            CONTINUOUS  HEAD                           ALL TIMES    "4 27 24"                                  shellmound.head.obs                                                             
 3157090185501                            CONTINUOUS  HEAD                           ALL TIMES    "5 27 24"                                  shellmound.head.obs                                                             
 3157090185501                            CONTINUOUS  HEAD                           ALL TIMES    "6 27 24"                                  shellmound.head.obs                                                             
 3157090185501                            CONTINUOUS  HEAD                           ALL TIMES    "7 27 24"                                  shellmound.head.obs                                                             
 3157090185501                            CONTINUOUS  HEAD                           ALL TIMES    "8 27 24"                                  shellmound.head.obs                                                             
 3157090185501                            CONTINUOUS  HEAD                           ALL TIMES    "9 27 24"                                  shellmound.head.obs                                                             
 3157090185501                            CONTINUOUS  HEAD                           ALL TIMES    "10 27 24"                                 shellmound.head.obs                                                             
 3157090185501                            CONTINUOUS  HEAD                           ALL TIMES    "11 27 24"                                 shellmound.head.obs                                                             
 3157090185501                            CONTINUOUS  HEAD                           ALL TIMES    "12 27 24"                                 shellmound.head.obs                                                             
 3157090185501                            CONTINUOUS  HEAD                           ALL TIMES    "13 27 24"                                 shellmound.head.obs                                                             
 3203090205301                            CONTINUOUS  HEAD                           ALL TIMES    "4 27 21"                                  shellmound.head.obs                                                             
 3203090205301                            CONTINUOUS  HEAD                           ALL TIMES    "5 27 21"                                  shellmound.head.obs                                                             
 3203090205301                            CONTINUOUS  HEAD                           ALL TIMES    "6 27 21"                                  shellmound.head.obs                                                             
 3203090205301                            CONTINUOUS  HEAD                           ALL TIMES    "7 27 21"                                  shellmound.head.obs                                                             
 3203090205301                            CONTINUOUS  HEAD                           ALL TIMES    "8 27 21"                                  shellmound.head.obs                                                             
 3203090205301                            CONTINUOUS  HEAD                           ALL TIMES    "9 27 21"                                  shellmound.head.obs                                                             
 3203090205301                            CONTINUOUS  HEAD                           ALL TIMES    "10 27 21"                                 shellmound.head.obs                                                             
 3203090205301                            CONTINUOUS  HEAD                           ALL TIMES    "11 27 21"                                 shellmound.head.obs                                                             
 3203090205301                            CONTINUOUS  HEAD                           ALL TIMES    "12 27 21"                                 shellmound.head.obs                                                             
 3203090205301                            CONTINUOUS  HEAD                           ALL TIMES    "13 27 21"                                 shellmound.head.obs                                                             
 3206090185401                            CONTINUOUS  HEAD                           ALL TIMES    "4 27 24"                                  shellmound.head.obs                                                             
 3206090185401                            CONTINUOUS  HEAD                           ALL TIMES    "5 27 24"                                  shellmound.head.obs                                                             
 3206090185401                            CONTINUOUS  HEAD                           ALL TIMES    "6 27 24"                                  shellmound.head.obs                                                             
 3206090185401                            CONTINUOUS  HEAD                           ALL TIMES    "7 27 24"                                  shellmound.head.obs                                                             
 3206090185401                            CONTINUOUS  HEAD                           ALL TIMES    "8 27 24"                                  shellmound.head.obs                                                             
 3206090185401                            CONTINUOUS  HEAD                           ALL TIMES    "9 27 24"                                  shellmound.head.obs                                                             
 3206090185401                            CONTINUOUS  HEAD                           ALL TIMES    "10 27 24"                                 shellmound.head.obs                                                             
 3206090185401                            CONTINUOUS  HEAD                           ALL TIMES    "11 27 24"                                 shellmound.head.obs                                                             
 3206090185401                            CONTINUOUS  HEAD                           ALL TIMES    "12 27 24"                                 shellmound.head.obs                                                             
 3206090185401                            CONTINUOUS  HEAD                           ALL TIMES    "13 27 24"                                 shellmound.head.obs                                                             
 3209090220401                            CONTINUOUS  HEAD                           ALL TIMES    "4 27 19"                                  shellmound.head.obs                                                             
 3209090220401                            CONTINUOUS  HEAD                           ALL TIMES    "5 27 19"                                  shellmound.head.obs                                                             
 3209090220401                            CONTINUOUS  HEAD                           ALL TIMES    "6 27 19"                                  shellmound.head.obs                                                             
 3209090220401                            CONTINUOUS  HEAD                           ALL TIMES    "7 27 19"                                  shellmound.head.obs                                                             
 3209090220401                            CONTINUOUS  HEAD                           ALL TIMES    "8 27 19"                                  shellmound.head.obs                                                             
 3209090220401                            CONTINUOUS  HEAD                           ALL TIMES    "9 27 19"                                  shellmound.head.obs                                                             
 3209090220401                            CONTINUOUS  HEAD                           ALL TIMES    "10 27 19"                                 shellmound.head.obs                                                             
 3209090220401                            CONTINUOUS  HEAD                           ALL TIMES    "11 27 19"                                 shellmound.head.obs                                                             
 3209090220401                            CONTINUOUS  HEAD                           ALL TIMES    "12 27 19"                                 shellmound.head.obs                                                             
 3209090220401                            CONTINUOUS  HEAD                           ALL TIMES    "13 27 19"                                 shellmound.head.obs                                                             
 3219090145601                            CONTINUOUS  HEAD                           ALL TIMES    "4 26 30"                                  shellmound.head.obs                                                             
 3219090145601                            CONTINUOUS  HEAD                           ALL TIMES    "5 26 30"                                  shellmound.head.obs                                                             
 3219090145601                            CONTINUOUS  HEAD                           ALL TIMES    "6 26 30"                                  shellmound.head.obs                                                             
 3219090145601                            CONTINUOUS  HEAD                           ALL TIMES    "7 26 30"                                  shellmound.head.obs                                                             
 3219090145601                            CONTINUOUS  HEAD                           ALL TIMES    "8 26 30"                                  shellmound.head.obs                                                             
 3219090145601                            CONTINUOUS  HEAD                           ALL TIMES    "9 26 30"                                  shellmound.head.obs                                                             
 3219090145601                            CONTINUOUS  HEAD                           ALL TIMES    "10 26 30"                                 shellmound.head.obs                                                             
 3219090145601                            CONTINUOUS  HEAD                           ALL TIMES    "11 26 30"                                 shellmound.head.obs                                                             
 3219090145601                            CONTINUOUS  HEAD                           ALL TIMES    "12 26 30"                                 shellmound.head.obs                                                             
 3219090145601                            CONTINUOUS  HEAD                           ALL TIMES    "13 26 30"                                 shellmound.head.obs                                                             
 3220090151201                            CONTINUOUS  HEAD                           ALL TIMES    "4 26 29"                                  shellmound.head.obs                                                             
 3220090151201                            CONTINUOUS  HEAD                           ALL TIMES    "5 26 29"                                  shellmound.head.obs                                                             
 3220090151201                            CONTINUOUS  HEAD                           ALL TIMES    "6 26 29"                                  shellmound.head.obs                                                             
 3220090151201                            CONTINUOUS  HEAD                           ALL TIMES    "7 26 29"                                  shellmound.head.obs                                                             
 3220090151201                            CONTINUOUS  HEAD                           ALL TIMES    "8 26 29"                                  shellmound.head.obs                                                             
 3220090151201                            CONTINUOUS  HEAD                           ALL TIMES    "9 26 29"                                  shellmound.head.obs                                                             
 3220090151201                            CONTINUOUS  HEAD                           ALL TIMES    "10 26 29"                                 shellmound.head.obs                                                             
 3220090151201                            CONTINUOUS  HEAD                           ALL TIMES    "11 26 29"                                 shellmound.head.obs                                                             
 3220090151201                            CONTINUOUS  HEAD                           ALL TIMES    "12 26 29"                                 shellmound.head.obs                                                             
 3220090151201                            CONTINUOUS  HEAD                           ALL TIMES    "13 26 29"                                 shellmound.head.obs                                                             
 3224090252801                            CONTINUOUS  HEAD                           ALL TIMES    "4 27 14"                                  shellmound.head.obs                                                             
 3224090252801                            CONTINUOUS  HEAD                           ALL TIMES    "5 27 14"                                  shellmound.head.obs                                                             
 3224090252801                            CONTINUOUS  HEAD                           ALL TIMES    "6 27 14"                                  shellmound.head.obs                                                             
 3224090252801                            CONTINUOUS  HEAD                           ALL TIMES    "7 27 14"                                  shellmound.head.obs                                                             
 3224090252801                            CONTINUOUS  HEAD                           ALL TIMES    "8 27 14"                                  shellmound.head.obs                                                             
 3224090252801                            CONTINUOUS  HEAD                           ALL TIMES    "9 27 14"                                  shellmound.head.obs                                                             
 3224090252801                            CONTINUOUS  HEAD                           ALL TIMES    "10 27 14"                                 shellmound.head.obs                                                             
 3224090252801                            CONTINUOUS  HEAD                           ALL TIMES    "11 27 14"                                 shellmound.head.obs                                                             
 3224090252801                            CONTINUOUS  HEAD                           ALL TIMES    "12 27 14"                                 shellmound.head.obs                                                             
 3224090252801                            CONTINUOUS  HEAD                           ALL TIMES    "13 27 14"                                 shellmound.head.obs                                                             
 3225090284501                            CONTINUOUS  HEAD                           ALL TIMES    "1 27 8"                                   shellmound.head.obs                                                             
 3225090284501                            CONTINUOUS  HEAD                           ALL TIMES    "2 27 8"                                   shellmound.head.obs                                                             
 3225090284501                            CONTINUOUS  HEAD                           ALL TIMES    "3 27 8"                                   shellmound.head.obs                                                             
 3225090284501                            CONTINUOUS  HEAD                           ALL TIMES    "4 27 8"                                   shellmound.head.obs                                                             
 3225090284501                            CONTINUOUS  HEAD                           ALL TIMES    "5 27 8"                                   shellmound.head.obs                                                             
 3225090284501                            CONTINUOUS  HEAD                           ALL TIMES    "6 27 8"                                   shellmound.head.obs                                                             
 3225090284501                            CONTINUOUS  HEAD                           ALL TIMES    "7 27 8"                                   shellmound.head.obs                                                             
 3225090284501                            CONTINUOUS  HEAD                           ALL TIMES    "8 27 8"                                   shellmound.head.obs                                                             
 3225090284501                            CONTINUOUS  HEAD                           ALL TIMES    "9 27 8"                                   shellmound.head.obs                                                             
 3225090284501                            CONTINUOUS  HEAD                           ALL TIMES    "10 27 8"                                  shellmound.head.obs                                                             
 3225090284501                            CONTINUOUS  HEAD                           ALL TIMES    "11 27 8"                                  shellmound.head.obs                                                             
 3225090284501                            CONTINUOUS  HEAD                           ALL TIMES    "12 27 8"                                  shellmound.head.obs                                                             
 3225090284501                            CONTINUOUS  HEAD                           ALL TIMES    "13 27 8"                                  shellmound.head.obs                                                             
 3226090283701                            CONTINUOUS  HEAD                           ALL TIMES    "1 27 9"                                   shellmound.head.obs                                                             
 3226090283701                            CONTINUOUS  HEAD                           ALL TIMES    "2 27 9"                                   shellmound.head.obs                                                             
 3226090283701                            CONTINUOUS  HEAD                           ALL TIMES    "3 27 9"                                   shellmound.head.obs                                                             
 3226090283701                            CONTINUOUS  HEAD                           ALL TIMES    "4 27 9"                                   shellmound.head.obs                                                             
 3226090283701                            CONTINUOUS  HEAD                           ALL TIMES    "5 27 9"                                   shellmound.head.obs                                                             
 3226090283701                            CONTINUOUS  HEAD                           ALL TIMES    "6 27 9"                                   shellmound.head.obs                                                             
 3226090283701                            CONTINUOUS  HEAD                           ALL TIMES    "7 27 9"                                   shellmound.head.obs                                                             
 3226090283701                            CONTINUOUS  HEAD                           ALL TIMES    "8 27 9"                                   shellmound.head.obs                                                             
 3226090283701                            CONTINUOUS  HEAD                           ALL TIMES    "9 27 9"                                   shellmound.head.obs                                                             
 3226090283701                            CONTINUOUS  HEAD                           ALL TIMES    "10 27 9"                                  shellmound.head.obs                                                             
 3226090283701                            CONTINUOUS  HEAD                           ALL TIMES    "11 27 9"                                  shellmound.head.obs                                                             
 3226090283701                            CONTINUOUS  HEAD                           ALL TIMES    "12 27 9"                                  shellmound.head.obs                                                             
 3226090283701                            CONTINUOUS  HEAD                           ALL TIMES    "13 27 9"                                  shellmound.head.obs                                                             
 3227090174201                            CONTINUOUS  HEAD                           ALL TIMES    "4 26 25"                                  shellmound.head.obs                                                             
 3227090174201                            CONTINUOUS  HEAD                           ALL TIMES    "5 26 25"                                  shellmound.head.obs                                                             
 3227090174201                            CONTINUOUS  HEAD                           ALL TIMES    "6 26 25"                                  shellmound.head.obs                                                             
 3227090174201                            CONTINUOUS  HEAD                           ALL TIMES    "7 26 25"                                  shellmound.head.obs                                                             
 3227090174201                            CONTINUOUS  HEAD                           ALL TIMES    "8 26 25"                                  shellmound.head.obs                                                             
 3227090174201                            CONTINUOUS  HEAD                           ALL TIMES    "9 26 25"                                  shellmound.head.obs                                                             
 3227090174201                            CONTINUOUS  HEAD                           ALL TIMES    "10 26 25"                                 shellmound.head.obs                                                             
 3227090174201                            CONTINUOUS  HEAD                           ALL TIMES    "11 26 25"                                 shellmound.head.obs                                                             
 3227090174201                            CONTINUOUS  HEAD                           ALL TIMES    "12 26 25"                                 shellmound.head.obs                                                             
 3227090174201                            CONTINUOUS  HEAD                           ALL TIMES    "13 26 25"                                 shellmound.head.obs                                                             
 3228090273001                            CONTINUOUS  HEAD                           ALL TIMES    "1 27 10"                                  shellmound.head.obs                                                             
 3228090273001                            CONTINUOUS  HEAD                           ALL TIMES    "2 27 10"                                  shellmound.head.obs                                                             
 3228090273001                            CONTINUOUS  HEAD                           ALL TIMES    "3 27 10"                                  shellmound.head.obs                                                             
 3228090273001                            CONTINUOUS  HEAD                           ALL TIMES    "4 27 10"                                  shellmound.head.obs                                                             
 3228090273001                            CONTINUOUS  HEAD                           ALL TIMES    "5 27 10"                                  shellmound.head.obs                                                             
 3228090273001                            CONTINUOUS  HEAD                           ALL TIMES    "6 27 10"                                  shellmound.head.obs                                                             
 3228090273001                            CONTINUOUS  HEAD                           ALL TIMES    "7 27 10"                                  shellmound.head.obs                                                             
 3228090273001                            CONTINUOUS  HEAD                           ALL TIMES    "8 27 10"                                  shellmound.head.obs                                                             
 3228090273001                            CONTINUOUS  HEAD                           ALL TIMES    "9 27 10"                                  shellmound.head.obs                                                             
 3228090273001                            CONTINUOUS  HEAD                           ALL TIMES    "10 27 10"                                 shellmound.head.obs                                                             
 3228090273001                            CONTINUOUS  HEAD                           ALL TIMES    "11 27 10"                                 shellmound.head.obs                                                             
 3228090273001                            CONTINUOUS  HEAD                           ALL TIMES    "12 27 10"                                 shellmound.head.obs                                                             
 3228090273001                            CONTINUOUS  HEAD                           ALL TIMES    "13 27 10"                                 shellmound.head.obs                                                             
 3230090283401                            CONTINUOUS  HEAD                           ALL TIMES    "1 27 9"                                   shellmound.head.obs                                                             
 3230090283401                            CONTINUOUS  HEAD                           ALL TIMES    "2 27 9"                                   shellmound.head.obs                                                             
 3230090283401                            CONTINUOUS  HEAD                           ALL TIMES    "3 27 9"                                   shellmound.head.obs                                                             
 3230090283401                            CONTINUOUS  HEAD                           ALL TIMES    "4 27 9"                                   shellmound.head.obs                                                             
 3230090283401                            CONTINUOUS  HEAD                           ALL TIMES    "5 27 9"                                   shellmound.head.obs                                                             
 3230090283401                            CONTINUOUS  HEAD                           ALL TIMES    "6 27 9"                                   shellmound.head.obs                                                             
 3230090283401                            CONTINUOUS  HEAD                           ALL TIMES    "7 27 9"                                   shellmound.head.obs                                                             
 3230090283401                            CONTINUOUS  HEAD                           ALL TIMES    "8 27 9"                                   shellmound.head.obs                                                             
 3230090283401                            CONTINUOUS  HEAD                           ALL TIMES    "9 27 9"                                   shellmound.head.obs                                                             
 3230090283401                            CONTINUOUS  HEAD                           ALL TIMES    "10 27 9"                                  shellmound.head.obs                                                             
 3230090283401                            CONTINUOUS  HEAD                           ALL TIMES    "11 27 9"                                  shellmound.head.obs                                                             
 3230090283401                            CONTINUOUS  HEAD                           ALL TIMES    "12 27 9"                                  shellmound.head.obs                                                             
 3230090283401                            CONTINUOUS  HEAD                           ALL TIMES    "13 27 9"                                  shellmound.head.obs                                                             
 3230090285201                            CONTINUOUS  HEAD                           ALL TIMES    "1 27 8"                                   shellmound.head.obs                                                             
 3230090285201                            CONTINUOUS  HEAD                           ALL TIMES    "2 27 8"                                   shellmound.head.obs                                                             
 3230090285201                            CONTINUOUS  HEAD                           ALL TIMES    "3 27 8"                                   shellmound.head.obs                                                             
 3230090285201                            CONTINUOUS  HEAD                           ALL TIMES    "4 27 8"                                   shellmound.head.obs                                                             
 3230090285201                            CONTINUOUS  HEAD                           ALL TIMES    "5 27 8"                                   shellmound.head.obs                                                             
 3230090285201                            CONTINUOUS  HEAD                           ALL TIMES    "6 27 8"                                   shellmound.head.obs                                                             
 3230090285201                            CONTINUOUS  HEAD                           ALL TIMES    "7 27 8"                                   shellmound.head.obs                                                             
 3230090285201                            CONTINUOUS  HEAD                           ALL TIMES    "8 27 8"                                   shellmound.head.obs                                                             
 3230090285201                            CONTINUOUS  HEAD                           ALL TIMES    "9 27 8"                                   shellmound.head.obs                                                             
 3230090285201                            CONTINUOUS  HEAD                           ALL TIMES    "10 27 8"                                  shellmound.head.obs                                                             
 3230090285201                            CONTINUOUS  HEAD                           ALL TIMES    "11 27 8"                                  shellmound.head.obs                                                             
 3230090285201                            CONTINUOUS  HEAD                           ALL TIMES    "12 27 8"                                  shellmound.head.obs                                                             
 3230090285201                            CONTINUOUS  HEAD                           ALL TIMES    "13 27 8"                                  shellmound.head.obs                                                             
 3230090303801                            CONTINUOUS  HEAD                           ALL TIMES    "1 27 6"                                   shellmound.head.obs                                                             
 3230090303801                            CONTINUOUS  HEAD                           ALL TIMES    "2 27 6"                                   shellmound.head.obs                                                             
 3230090303801                            CONTINUOUS  HEAD                           ALL TIMES    "3 27 6"                                   shellmound.head.obs                                                             
 3230090303801                            CONTINUOUS  HEAD                           ALL TIMES    "4 27 6"                                   shellmound.head.obs                                                             
 3230090303801                            CONTINUOUS  HEAD                           ALL TIMES    "5 27 6"                                   shellmound.head.obs                                                             
 3230090303801                            CONTINUOUS  HEAD                           ALL TIMES    "6 27 6"                                   shellmound.head.obs                                                             
 3230090303801                            CONTINUOUS  HEAD                           ALL TIMES    "7 27 6"                                   shellmound.head.obs                                                             
 3230090303801                            CONTINUOUS  HEAD                           ALL TIMES    "8 27 6"                                   shellmound.head.obs                                                             
 3230090303801                            CONTINUOUS  HEAD                           ALL TIMES    "9 27 6"                                   shellmound.head.obs                                                             
 3230090303801                            CONTINUOUS  HEAD                           ALL TIMES    "10 27 6"                                  shellmound.head.obs                                                             
[...]
    235        1       5       3    -2787.89670      64030                                   
    236        1       5       5    -1440.32710      64031                                   
    237        1       5       6    -2170.15400      64032                                   
    238       13       5       8    -3232.05180      64033                                   
    239       13       5       9    -2396.22970      64034                                   
    240       13       5      11    -2971.50000      64035                                   
    241       13       5      13    -1504.91310      64036                                   
    242       13       5      18    -413.935500      64039                                   
    243       13       5      24    -253.077650      64043                                   
    244        4       5      26    -34.3190350      64044                                   
    245        4       5      27    -789.337800      64045                                   
    246       13       5      34    -379.616460      64049                                   
    247        2       3       3    -1124.82130      64424                                   
    248       13       3       5    -1356.55320      64425                                   
    249       13       3       6    -2364.42500      64426                                   
    250       13       3       8    -1788.59270      64427                                   
    251        4       3       9    -522.840300      64428                                   
    252        4       3      11    -355.297150      64429                                   
    253       13       3      13    -847.870400      64430                                   
    254        4       3      19    -1077.94890      64434                                   
    255        4       3      21    -2127.67500      64435                                   
    256        4       3      22    -575.266500      64436                                   
    257        4       3      26    -137.276140      64438                                   
    258        4       3      27    -1853.22790      64439                                   
    259       13       3      30    -126.538826      64441                                   
    260       13       3      34    -287.396670      64443                                   
    261        1       2       3    -1261.76010      64818                                   
    262        2       2       5    -1285.91670      64819                                   
    263       13       2       6    -904.352400      64820                                   
    264       13       2       8    -1514.04030      64821                                   
    265        4       2       9    -1162.79520      64822                                   
    266       13       2      11    -730.755860      64823                                   
    267       13       2      13    -361.350520      64824                                   
    268        4       2      19    -2716.53560      64828                                   
    269        4       2      21    -2992.52690      64829                                   
    270        4       2      22    -892.294860      64830                                   
    271        4       2      24    -1020.38550      64831                                   
    272        4       2      26    -1224.60930      64832                                   
    273        4       2      27    -514.785500      64833                                   
    274       13       2      29    -308.871300      64834                                   
    275       13       2      32    -253.077650      64836                                   
    276       13       2      34    -126.538826      64837                                   
    277        9       3      23    -6445.99100      98320                                   
    278       10       4      20    -565.548030      98712                                   
    279        9       4      23    -121.332016      98714                                   
    280       10       7       9    -570.138730      99493                                   
    281       10       9      28    -565.548030      99899                                   
    282       10      12      23    -565.548030      100684                                  
    283        9      12      30    -121.332016      100688                                  
    284        9      14      31    -121.332016      101083                                  
    285        9      14      33    -121.332016      101084                                  
    286        9      14      34    -242.664030      101085                                  
    287       10      15      13    -565.548030      101466                                  
    288       10      15      20    -1252.42810      101470                                  
    289        9      20      23    -121.332016      102654                                  
    290       10      22       4    -570.138730      103036                                  
    291       10      22      13    -1131.09610      103042                                  
    292        9      22      34    -686.880070      103055                                  
    293        7      27       4    -151.686260      104218                                  
    294        7      27       7    -106.180244      104220                                  
    295       10      27      17    -1696.64400      104226                                  
 --------------------------------------------------------------------------------------------



 OPENED ./external/rch18.dat
 FILE TYPE:OPEN/CLOSE   UNIT 1131   STATUS:OLD                 
 FORMAT:FORMATTED              ACCESS:SEQUENTIAL          
 ACTION:READ                


 REUSING SFRS FROM LAST STRESS PERIOD

 INNER ITERATION SUMMARY
 --------------------------------------------------------------------------------------------------------------------------------------
      TOTAL      OUTER      INNER                                                            MAXIMUM                                   
  ITERATION  ITERATION  ITERATION  MAXIMUM CHANGE      MAXIMUM CHANGE MODEL-(CELLID)        RESIDUAL    MAXIMUM RESIDUAL MODEL-(CELLID)
 --------------------------------------------------------------------------------------------------------------------------------------
          1          1          1     -0.19852393                     1_GWF-(1,27,3)       150.77647                    1_GWF-(11,18,8)
          2          1          2 -3.52781260E-02                   1_GWF-(11,27,14)      -19.517661                    1_GWF-(12,14,4)
          3          1          3  3.67042866E-03                   1_GWF-(11,27,14)       1.4521788                    1_GWF-(6,21,30)
          4          2          1 -3.61228458E-04                   1_GWF-(11,27,15)      0.32380894                   1_GWF-(11,26,14)
 --------------------------------------------------------------------------------------------------------------------------------------



end timestep


start timestep kper="19" kstp="2" mode="normal"


 INNER ITERATION SUMMARY
 --------------------------------------------------------------------------------------------------------------------------------------
      TOTAL      OUTER      INNER                                                            MAXIMUM                                   
  ITERATION  ITERATION  ITERATION  MAXIMUM CHANGE      MAXIMUM CHANGE MODEL-(CELLID)        RESIDUAL    MAXIMUM RESIDUAL MODEL-(CELLID)
 --------------------------------------------------------------------------------------------------------------------------------------
          1          1          1     -0.22461772                     1_GWF-(2,27,3)       168.43695                    1_GWF-(11,20,7)
          2          1          2 -3.06698636E-02                   1_GWF-(10,27,15)       22.900871                    1_GWF-(6,24,29)
          3          1          3 -3.98468363E-03                   1_GWF-(11,27,15)       4.2373343                    1_GWF-(6,23,30)
          4          2          1 -8.34455023E-04                   1_GWF-(11,27,15)      0.91086003                    1_GWF-(6,23,30)
 --------------------------------------------------------------------------------------------------------------------------------------



end timestep


start timestep kper="19" kstp="3" mode="normal"


 INNER ITERATION SUMMARY
 --------------------------------------------------------------------------------------------------------------------------------------
      TOTAL      OUTER      INNER                                                            MAXIMUM                                   
  ITERATION  ITERATION  ITERATION  MAXIMUM CHANGE      MAXIMUM CHANGE MODEL-(CELLID)        RESIDUAL    MAXIMUM RESIDUAL MODEL-(CELLID)
 --------------------------------------------------------------------------------------------------------------------------------------
          1          1          1     -0.25800517                     1_GWF-(2,27,3)       173.87352                   1_GWF-(11,26,14)
          2          1          2 -4.77674336E-02                   1_GWF-(10,27,15)      -53.946041                   1_GWF-(11,27,14)
          3          1          3 -6.34911689E-03                   1_GWF-(13,16,19)       5.0464579                    1_GWF-(6,24,31)
          4          2          1 -1.30121986E-03                   1_GWF-(11,24,31)       1.4482805                    1_GWF-(6,25,28)
 --------------------------------------------------------------------------------------------------------------------------------------



end timestep


start timestep kper="19" kstp="4" mode="normal"


 INNER ITERATION SUMMARY
 --------------------------------------------------------------------------------------------------------------------------------------
      TOTAL      OUTER      INNER                                                            MAXIMUM                                   
  ITERATION  ITERATION  ITERATION  MAXIMUM CHANGE      MAXIMUM CHANGE MODEL-(CELLID)        RESIDUAL    MAXIMUM RESIDUAL MODEL-(CELLID)
 --------------------------------------------------------------------------------------------------------------------------------------
          1          1          1     -0.28835134                     1_GWF-(1,27,3)       211.72520                   1_GWF-(11,26,14)
          2          1          2 -8.41566027E-02                   1_GWF-(11,27,15)      -115.87024                   1_GWF-(11,26,15)
          3          1          3 -2.49210189E-02                   1_GWF-(13,16,18)      -22.415334                   1_GWF-(11,26,13)
          4          1          4  3.35890789E-03                   1_GWF-(13,22,18)       4.9800664                    1_GWF-(6,24,32)
          5          2          1 -1.06304461E-03                   1_GWF-(11,24,32)       2.0376870                    1_GWF-(6,24,32)
 --------------------------------------------------------------------------------------------------------------------------------------



end timestep


start timestep kper="19" kstp="5" mode="normal"


 INNER ITERATION SUMMARY
 --------------------------------------------------------------------------------------------------------------------------------------
      TOTAL      OUTER      INNER                                                            MAXIMUM                                   
  ITERATION  ITERATION  ITERATION  MAXIMUM CHANGE      MAXIMUM CHANGE MODEL-(CELLID)        RESIDUAL    MAXIMUM RESIDUAL MODEL-(CELLID)
 --------------------------------------------------------------------------------------------------------------------------------------
          1          1          1     -0.30868188                     1_GWF-(2,27,3)       248.92488                   1_GWF-(11,26,14)
          2          1          2     -0.16167150                   1_GWF-(11,27,14)      -202.00432                   1_GWF-(11,26,15)
          3          1          3     -0.11620341                   1_GWF-(13,17,18)      -199.19283                   1_GWF-(11,26,13)
          4          1          4  6.66028797E-02                   1_GWF-(13,17,18)       7.2695901                    1_GWF-(6,24,32)
          5          1          5 -2.55837417E-03                   1_GWF-(11,25,33)       3.1414318                    1_GWF-(6,25,33)
          6          2          1 -1.79985598E-03                   1_GWF-(11,24,33)       1.5092432                    1_GWF-(6,24,29)
 --------------------------------------------------------------------------------------------------------------------------------------


 UBDSV1 SAVING           STO-SS ON UNIT   1111 AT TIME STEP      5, STRESS PERIOD     19
 UBDSV1 SAVING           STO-SY ON UNIT   1111 AT TIME STEP      5, STRESS PERIOD     19
 UBDSV1 SAVING     FLOW-JA-FACE ON UNIT   1111 AT TIME STEP      5, STRESS PERIOD     19
 UBDSV06 SAVING              WEL IN MODEL SHELLMOUND       PACKAGE SHELLMOUND      CONNECTED TO MODEL SHELLMOUND       PACKAGE WEL_0            ON UNIT   1111 AT TIME STEP      5, STRESS PERIOD     19
 UBDSV06 SAVING              RCH IN MODEL SHELLMOUND       PACKAGE SHELLMOUND      CONNECTED TO MODEL SHELLMOUND       PACKAGE RCHA             ON UNIT   1111 AT TIME STEP      5, STRESS PERIOD     19
 UBDSV06 SAVING              SFR IN MODEL SHELLMOUND       PACKAGE SHELLMOUND      CONNECTED TO MODEL SHELLMOUND       PACKAGE SFR_0            ON UNIT   1111 AT TIME STEP      5, STRESS PERIOD     19
 UBDSV06 SAVING     FLOW-JA-FACE IN MODEL SHELLMOUND       PACKAGE SFR_0           CONNECTED TO MODEL SHELLMOUND       PACKAGE SFR_0            ON UNIT   1042 AT TIME STEP      5, STRESS PERIOD     19
 UBDSV06 SAVING              GWF IN MODEL SHELLMOUND       PACKAGE SFR_0           CONNECTED TO MODEL SHELLMOUND       PACKAGE SHELLMOUND       ON UNIT   1042 AT TIME STEP      5, STRESS PERIOD     19
 UBDSV06 SAVING         RAINFALL IN MODEL SHELLMOUND       PACKAGE SFR_0           CONNECTED TO MODEL SHELLMOUND       PACKAGE SFR_0            ON UNIT   1042 AT TIME STEP      5, STRESS PERIOD     19
 UBDSV06 SAVING      EVAPORATION IN MODEL SHELLMOUND       PACKAGE SFR_0           CONNECTED TO MODEL SHELLMOUND       PACKAGE SFR_0            ON UNIT   1042 AT TIME STEP      5, STRESS PERIOD     19
 UBDSV06 SAVING           RUNOFF IN MODEL SHELLMOUND       PACKAGE SFR_0           CONNECTED TO MODEL SHELLMOUND       PACKAGE SFR_0            ON UNIT   1042 AT TIME STEP      5, STRESS PERIOD     19
 UBDSV06 SAVING       EXT-INFLOW IN MODEL SHELLMOUND       PACKAGE SFR_0           CONNECTED TO MODEL SHELLMOUND       PACKAGE SFR_0            ON UNIT   1042 AT TIME STEP      5, STRESS PERIOD     19
 UBDSV06 SAVING      EXT-OUTFLOW IN MODEL SHELLMOUND       PACKAGE SFR_0           CONNECTED TO MODEL SHELLMOUND       PACKAGE SFR_0            ON UNIT   1042 AT TIME STEP      5, STRESS PERIOD     19
 UBDSV06 SAVING          STORAGE IN MODEL SHELLMOUND       PACKAGE SFR_0           CONNECTED TO MODEL SHELLMOUND       PACKAGE SFR_0            ON UNIT   1042 AT TIME STEP      5, STRESS PERIOD     19

 HEAD WILL BE SAVED ON UNIT 1112 AT END OF TIME STEP    5, STRESS PERIOD   19


  SFR_0 BUDGET FOR ENTIRE MODEL AT END OF TIME STEP    5, STRESS PERIOD  19
  ------------------------------------------------------------------------------

     CUMULATIVE SFR_0      L**3       RATES FOR THIS TIME STEP      L**3/T
     ------------------                 ------------------------

           IN:                                      IN:
           ---                                      ---
                 GWF =     8365358.0943                   GWF =           0.0000
            RAINFALL =           0.0000              RAINFALL =           0.0000
         EVAPORATION =           0.0000           EVAPORATION =           0.0000
              RUNOFF =           0.0000                RUNOFF =           0.0000
          EXT-INFLOW =           0.0000            EXT-INFLOW =           0.0000
         EXT-OUTFLOW =           0.0000           EXT-OUTFLOW =           0.0000
             STORAGE =           0.0000               STORAGE =           0.0000

            TOTAL IN =     8365358.0943              TOTAL IN =           0.0000

          OUT:                                     OUT:
          ----                                     ----
                 GWF =      850462.1269                   GWF =           0.0000
            RAINFALL =           0.0000              RAINFALL =           0.0000
         EVAPORATION =           0.0000           EVAPORATION =           0.0000
              RUNOFF =           0.0000                RUNOFF =           0.0000
          EXT-INFLOW =           0.0000            EXT-INFLOW =           0.0000
         EXT-OUTFLOW =     7514895.9673           EXT-OUTFLOW =           0.0000
             STORAGE =           0.0000               STORAGE =           0.0000

           TOTAL OUT =     8365358.0943             TOTAL OUT =           0.0000

            IN - OUT =       9.3132E-10              IN - OUT =           0.0000

 PERCENT DISCREPANCY =           0.00     PERCENT DISCREPANCY =           0.00



  VOLUME BUDGET FOR ENTIRE MODEL AT END OF TIME STEP    5, STRESS PERIOD  19
  ---------------------------------------------------------------------------------------------------

     CUMULATIVE VOLUME      L**3       RATES FOR THIS TIME STEP      L**3/T          PACKAGE NAME    
     ------------------                 ------------------------                     ----------------

           IN:                                      IN:
           ---                                      ---
              STO-SS =     6838846.3629                STO-SS =        1318.5868     STORAGE         
              STO-SY =  2530001308.7318                STO-SY =      489512.5093     STORAGE         
                 WEL =           0.0000                   WEL =           0.0000     WEL_0           
                 RCH =   331865479.2823                   RCH =       37549.4507     RCHA            
                 SFR =      851209.0368                   SFR =           0.0000     SFR_0           

            TOTAL IN =  2869556843.4139              TOTAL IN =      528380.5468

          OUT:                                     OUT:
          ----                                     ----
              STO-SS =      550118.3181                STO-SS =           0.0000     STORAGE         
              STO-SY =   188504700.1423                STO-SY =           0.0000     STORAGE         
                 WEL =  2675688426.6535                   WEL =      528817.1966     WEL_0           
                 RCH =           0.0000                   RCH =           0.0000     RCHA            
                 SFR =     8359844.9575                   SFR =           0.0000     SFR_0           

           TOTAL OUT =  2873103090.0715             TOTAL OUT =      528817.1966

            IN - OUT =     3546246.6575              IN - OUT =         436.6498

 PERCENT DISCREPANCY =          -0.12     PERCENT DISCREPANCY =          -0.08




         TIME SUMMARY AT END OF TIME STEP    5 IN STRESS PERIOD   19
                    SECONDS     MINUTES      HOURS       DAYS        YEARS
                    -----------------------------------------------------------
   TIME STEP LENGTH 6.06970E+06 1.01162E+05  1686.0      70.251     0.19234    
 STRESS PERIOD TIME 1.58112E+07 2.63520E+05  4392.0      183.00     0.50103    
         TOTAL TIME 5.52355E+08 9.20592E+06 1.53432E+05  6393.0      17.503    


end timestep

