                                   MODFLOW 6
                U.S. GEOLOGICAL SURVEY MODULAR HYDROLOGIC MODEL
                          GROUNDWATER FLOW MODEL (GWF)
                            VERSION 6.2.0 10/22/2020

   MODFLOW 6 compiled Oct 29 2020 12:19:52 with IFORT compiler (ver. 19.10.3)

This software has been approved for release by the U.S. Geological
Survey (USGS). Although the software has been subjected to rigorous
review, the USGS reserves the right to update the software as needed
pursuant to further analysis and review. No warranty, expressed or
implied, is made by the USGS or the U.S. Government as to the
functionality of the software and related material nor shall the
fact of release constitute any such warranty. Furthermore, the
software is released on condition that neither the USGS nor the U.S.
Government shall be held liable for any damages resulting from its
authorized or unauthorized use. Also refer to the USGS Water
Resources Software User Rights Notice for complete use, copyright,
and distribution information.


System command used to initiate simulation:
mf6

MODFLOW was compiled using uniform precision.

Real Variables
  KIND: 8
  TINY (smallest non-zero value):    2.225074-308
  HUGE (largest value):    1.797693+308
  PRECISION: 15
  BIT SIZE: 64

Integer Variables
  KIND: 4
  HUGE (largest value): 2147483647
  BIT SIZE: 32

Long Integer Variables
  KIND: 8
  HUGE (largest value): 9223372036854775807
  BIT SIZE: 64

Logical Variables
  KIND: 4
  BIT SIZE: 32


 OPENED shellmound.dis
 FILE TYPE:DIS6                   UNIT 1005   STATUS:OLD
 FORMAT:FORMATTED              ACCESS:SEQUENTIAL
 ACTION:READ


 OPENED shellmound.ic
 FILE TYPE:IC6                    UNIT 1006   STATUS:OLD
 FORMAT:FORMATTED              ACCESS:SEQUENTIAL
 ACTION:READ


 OPENED shellmound.npf
 FILE TYPE:NPF6                   UNIT 1007   STATUS:OLD
 FORMAT:FORMATTED              ACCESS:SEQUENTIAL
 ACTION:READ


 OPENED shellmound.sto
 FILE TYPE:STO6                   UNIT 1008   STATUS:OLD
 FORMAT:FORMATTED              ACCESS:SEQUENTIAL
 ACTION:READ


 OPENED shellmound.rcha
 FILE TYPE:RCH6                   UNIT 1009   STATUS:OLD
 FORMAT:FORMATTED              ACCESS:SEQUENTIAL
 ACTION:READ


 OPENED shellmound.oc
 FILE TYPE:OC6                    UNIT 1010   STATUS:OLD
 FORMAT:FORMATTED              ACCESS:SEQUENTIAL
 ACTION:READ


 OPENED shellmound.sfr
 FILE TYPE:SFR6                   UNIT 1011   STATUS:OLD
 FORMAT:FORMATTED              ACCESS:SEQUENTIAL
 ACTION:READ


 OPENED shellmound.wel
 FILE TYPE:WEL6                   UNIT 1012   STATUS:OLD
 FORMAT:FORMATTED              ACCESS:SEQUENTIAL
 ACTION:READ


 OPENED shellmound.obs
 FILE TYPE:OBS6                   UNIT 1013   STATUS:OLD
 FORMAT:FORMATTED              ACCESS:SEQUENTIAL
 ACTION:READ

 NAMEFILE OPTIONS:
    STRESS PACKAGE INPUT WILL BE PRINTED FOR ALL MODEL STRESS PACKAGES
    FLOWS WILL BE SAVED TO BUDGET FILE SPECIFIED IN OUTPUT CONTROL
    NEWTON-RAPHSON method enabled for the model.

 DIS -- STRUCTURED GRID DISCRETIZATION PACKAGE, VERSION 2 : 3/27/2014 - INPUT READ FROM UNIT 1005


 PROCESSING DISCRETIZATION OPTIONS
    MODEL LENGTH UNIT IS METERS
    XORIGIN SPECIFIED AS     500955.000000000
    YORIGIN SPECIFIED AS     1175285.00000000
    ANGROT SPECIFIED AS     0.00000000000000
 END OF DISCRETIZATION OPTIONS
 PROCESSING DISCRETIZATION DIMENSIONS
    NLAY =      13
    NROW =      30
    NCOL =      35
 END OF DISCRETIZATION DIMENSIONS
 PROCESSING GRIDDATA

                     DELR =   1000.000

                     DELC =   1000.000

 OPENED ./external/top.dat
 FILE TYPE:OPEN/CLOSE   UNIT 1015   STATUS:OLD
 FORMAT:FORMATTED              ACCESS:SEQUENTIAL
 ACTION:READ


 OPENED ./external/botm0.dat
 FILE TYPE:OPEN/CLOSE   UNIT 1016   STATUS:OLD
 FORMAT:FORMATTED              ACCESS:SEQUENTIAL
 ACTION:READ


 OPENED ./external/botm1.dat
 FILE TYPE:OPEN/CLOSE   UNIT 1017   STATUS:OLD
 FORMAT:FORMATTED              ACCESS:SEQUENTIAL
 ACTION:READ


 OPENED ./external/botm2.dat
 FILE TYPE:OPEN/CLOSE   UNIT 1018   STATUS:OLD
 FORMAT:FORMATTED              ACCESS:SEQUENTIAL
 ACTION:READ


 OPENED ./external/botm3.dat
 FILE TYPE:OPEN/CLOSE   UNIT 1019   STATUS:OLD
 FORMAT:FORMATTED              ACCESS:SEQUENTIAL
 ACTION:READ


 OPENED ./external/botm4.dat
 FILE TYPE:OPEN/CLOSE   UNIT 1020   STATUS:OLD
 FORMAT:FORMATTED              ACCESS:SEQUENTIAL
 ACTION:READ


 OPENED ./external/botm5.dat
 FILE TYPE:OPEN/CLOSE   UNIT 1021   STATUS:OLD
 FORMAT:FORMATTED              ACCESS:SEQUENTIAL
 ACTION:READ


 OPENED ./external/botm6.dat
 FILE TYPE:OPEN/CLOSE   UNIT 1022   STATUS:OLD
 FORMAT:FORMATTED              ACCESS:SEQUENTIAL
 ACTION:READ


 OPENED ./external/botm7.dat
 FILE TYPE:OPEN/CLOSE   UNIT 1023   STATUS:OLD
 FORMAT:FORMATTED              ACCESS:SEQUENTIAL
 ACTION:READ


 OPENED ./external/botm8.dat
 FILE TYPE:OPEN/CLOSE   UNIT 1024   STATUS:OLD
 FORMAT:FORMATTED              ACCESS:SEQUENTIAL
 ACTION:READ


 OPENED ./external/botm9.dat
 FILE TYPE:OPEN/CLOSE   UNIT 1025   STATUS:OLD
 FORMAT:FORMATTED              ACCESS:SEQUENTIAL
 ACTION:READ


 OPENED ./external/botm10.dat
 FILE TYPE:OPEN/CLOSE   UNIT 1026   STATUS:OLD
 FORMAT:FORMATTED              ACCESS:SEQUENTIAL
 ACTION:READ


 OPENED ./external/botm11.dat
 FILE TYPE:OPEN/CLOSE   UNIT 1027   STATUS:OLD
 FORMAT:FORMATTED              ACCESS:SEQUENTIAL
 ACTION:READ


 OPENED ./external/botm12.dat
 FILE TYPE:OPEN/CLOSE   UNIT 1028   STATUS:OLD
 FORMAT:FORMATTED              ACCESS:SEQUENTIAL
 ACTION:READ


 OPENED ./external/idomain0.dat
 FILE TYPE:OPEN/CLOSE   UNIT 1029   STATUS:OLD
 FORMAT:FORMATTED              ACCESS:SEQUENTIAL
 ACTION:READ


 OPENED ./external/idomain1.dat
 FILE TYPE:OPEN/CLOSE   UNIT 1030   STATUS:OLD
 FORMAT:FORMATTED              ACCESS:SEQUENTIAL
 ACTION:READ


 OPENED ./external/idomain2.dat
 FILE TYPE:OPEN/CLOSE   UNIT 1031   STATUS:OLD
 FORMAT:FORMATTED              ACCESS:SEQUENTIAL
 ACTION:READ


 OPENED ./external/idomain3.dat
 FILE TYPE:OPEN/CLOSE   UNIT 1032   STATUS:OLD
 FORMAT:FORMATTED              ACCESS:SEQUENTIAL
 ACTION:READ


 OPENED ./external/idomain4.dat
 FILE TYPE:OPEN/CLOSE   UNIT 1033   STATUS:OLD
 FORMAT:FORMATTED              ACCESS:SEQUENTIAL
 ACTION:READ


 OPENED ./external/idomain5.dat
 FILE TYPE:OPEN/CLOSE   UNIT 1034   STATUS:OLD
 FORMAT:FORMATTED              ACCESS:SEQUENTIAL
 ACTION:READ


 OPENED ./external/idomain6.dat
 FILE TYPE:OPEN/CLOSE   UNIT 1035   STATUS:OLD
 FORMAT:FORMATTED              ACCESS:SEQUENTIAL
 ACTION:READ


 OPENED ./external/idomain7.dat
 FILE TYPE:OPEN/CLOSE   UNIT 1036   STATUS:OLD
 FORMAT:FORMATTED              ACCESS:SEQUENTIAL
 ACTION:READ


 OPENED ./external/idomain8.dat
 FILE TYPE:OPEN/CLOSE   UNIT 1037   STATUS:OLD
 FORMAT:FORMATTED              ACCESS:SEQUENTIAL
 ACTION:READ


 OPENED ./external/idomain9.dat
 FILE TYPE:OPEN/CLOSE   UNIT 1038   STATUS:OLD
 FORMAT:FORMATTED              ACCESS:SEQUENTIAL
 ACTION:READ


 OPENED ./external/idomain10.dat
 FILE TYPE:OPEN/CLOSE   UNIT 1039   STATUS:OLD
 FORMAT:FORMATTED              ACCESS:SEQUENTIAL
 ACTION:READ


 OPENED ./external/idomain11.dat
 FILE TYPE:OPEN/CLOSE   UNIT 1040   STATUS:OLD
 FORMAT:FORMATTED              ACCESS:SEQUENTIAL
 ACTION:READ


 OPENED ./external/idomain12.dat
 FILE TYPE:OPEN/CLOSE   UNIT 1041   STATUS:OLD
 FORMAT:FORMATTED              ACCESS:SEQUENTIAL
 ACTION:READ

 END PROCESSING GRIDDATA

 THE SPECIFIED IDOMAIN RESULTS IN A REDUCED NUMBER OF CELLS.
 NUMBER OF USER NODES: 13650
 NUMBER OF NODES IN SOLUTION: 9096



 NPF -- NODE PROPERTY FLOW PACKAGE, VERSION 1, 3/30/2015 INPUT READ FROM UNIT 1007


 PROCESSING NPF OPTIONS
    CELL-BY-CELL FLOW INFORMATION WILL BE SAVED TO BINARY FILE WHENEVER ICBCFL IS NOT ZERO.
 END OF NPF OPTIONS

 WEL   -- WEL PACKAGE, VERSION 8, 2/22/2014 INPUT READ FROM UNIT 1012

 PROCESSING WEL OPTIONS
    WEL BOUNDARIES HAVE NAMES IN LAST COLUMN.
    LISTS OF WEL CELLS WILL BE PRINTED.
    WEL FLOWS WILL BE PRINTED TO LISTING FILE.
    FLOWS WILL BE SAVED TO BUDGET FILE SPECIFIED IN OUTPUT CONTROL
 END OF WEL OPTIONS

 PROCESSING WEL DIMENSIONS
    MAXBOUND =     340
 END OF WEL DIMENSIONS

 RCH   -- RCH PACKAGE, VERSION 8, 2/22/2014 INPUT READ FROM UNIT 1009

 PROCESSING RCH OPTIONS
    RECHARGE INPUT WILL BE READ AS ARRAY(S).
    LISTS OF RCH CELLS WILL BE PRINTED.
    FLOWS WILL BE SAVED TO BUDGET FILE SPECIFIED IN OUTPUT CONTROL
 END OF RCH OPTIONS

 SFR   -- SFR PACKAGE, VERSION 8, 2/22/2014 INPUT READ FROM UNIT 1011
 # MODFLOW-6 SFR input; created by SFRmaker v. 0.4.0.post1+g74510a9

 PROCESSING SFR OPTIONS
    FLOWS WILL BE SAVED TO BUDGET FILE SPECIFIED IN OUTPUT CONTROL

 OPENED shellmound.sfr.out.bin
 FILE TYPE:DATA(BINARY)   UNIT 1042   STATUS:REPLACE
 FORMAT:UNFORMATTED            ACCESS:STREAM
 ACTION:READWRITE

    SFR  BUDGET  WILL BE SAVED TO FILE: shellmound.sfr.out.bin
    OPENED ON UNIT:    1042

 OPENED shellmound.sfr.stage.bin
 FILE TYPE:DATA(BINARY)   UNIT 1043   STATUS:REPLACE
 FORMAT:UNFORMATTED            ACCESS:STREAM
 ACTION:READWRITE

    SFR  STAGE  WILL BE SAVED TO FILE: shellmound.sfr.stage.bin
    OPENED ON UNIT:    1043
    UNIT CONVERSION VALUE (86400.00000000000) SPECIFIED.
 END OF SFR OPTIONS

 PROCESSING SFR DIMENSIONS
    NREACHES = 362
 END OF SFR DIMENSIONS
 #rno k i j rlen rwid rgrd rtp rbth rhk man ncon ustrf ndv

 PROCESSING SFR PACKAGEDATA
 END OF SFR PACKAGEDATA

 PROCESSING SFR CONNECTIONDATA
 END OF SFR CONNECTIONDATA

 IC -- INITIAL CONDITIONS PACKAGE, VERSION 8, 3/28/2015 INPUT READ FROM UNIT 1006
 PROCESSING GRIDDATA

 OPENED ./external/strt0.dat
 FILE TYPE:OPEN/CLOSE   UNIT 1044   STATUS:OLD
 FORMAT:FORMATTED              ACCESS:SEQUENTIAL
 ACTION:READ


 OPENED ./external/strt1.dat
 FILE TYPE:OPEN/CLOSE   UNIT 1045   STATUS:OLD
 FORMAT:FORMATTED              ACCESS:SEQUENTIAL
 ACTION:READ


 OPENED ./external/strt2.dat
 FILE TYPE:OPEN/CLOSE   UNIT 1046   STATUS:OLD
 FORMAT:FORMATTED              ACCESS:SEQUENTIAL
 ACTION:READ


 OPENED ./external/strt3.dat
 FILE TYPE:OPEN/CLOSE   UNIT 1047   STATUS:OLD
 FORMAT:FORMATTED              ACCESS:SEQUENTIAL
 ACTION:READ


 OPENED ./external/strt4.dat
 FILE TYPE:OPEN/CLOSE   UNIT 1048   STATUS:OLD
 FORMAT:FORMATTED              ACCESS:SEQUENTIAL
 ACTION:READ


 OPENED ./external/strt5.dat
 FILE TYPE:OPEN/CLOSE   UNIT 1049   STATUS:OLD
 FORMAT:FORMATTED              ACCESS:SEQUENTIAL
 ACTION:READ


 OPENED ./external/strt6.dat
 FILE TYPE:OPEN/CLOSE   UNIT 1050   STATUS:OLD
 FORMAT:FORMATTED              ACCESS:SEQUENTIAL
 ACTION:READ


 OPENED ./external/strt7.dat
 FILE TYPE:OPEN/CLOSE   UNIT 1051   STATUS:OLD
 FORMAT:FORMATTED              ACCESS:SEQUENTIAL
 ACTION:READ


 OPENED ./external/strt8.dat
 FILE TYPE:OPEN/CLOSE   UNIT 1052   STATUS:OLD
 FORMAT:FORMATTED              ACCESS:SEQUENTIAL
 ACTION:READ


 OPENED ./external/strt9.dat
 FILE TYPE:OPEN/CLOSE   UNIT 1053   STATUS:OLD
 FORMAT:FORMATTED              ACCESS:SEQUENTIAL
 ACTION:READ


 OPENED ./external/strt10.dat
 FILE TYPE:OPEN/CLOSE   UNIT 1054   STATUS:OLD
 FORMAT:FORMATTED              ACCESS:SEQUENTIAL
 ACTION:READ


 OPENED ./external/strt11.dat
 FILE TYPE:OPEN/CLOSE   UNIT 1055   STATUS:OLD
 FORMAT:FORMATTED              ACCESS:SEQUENTIAL
 ACTION:READ


 OPENED ./external/strt12.dat
 FILE TYPE:OPEN/CLOSE   UNIT 1056   STATUS:OLD
 FORMAT:FORMATTED              ACCESS:SEQUENTIAL
 ACTION:READ

 END PROCESSING GRIDDATA
 PROCESSING GRIDDATA

                ICELLTYPE = 1

 OPENED ./external/k0.dat
 FILE TYPE:OPEN/CLOSE   UNIT 1057   STATUS:OLD
 FORMAT:FORMATTED              ACCESS:SEQUENTIAL
 ACTION:READ


 OPENED ./external/k1.dat
 FILE TYPE:OPEN/CLOSE   UNIT 1058   STATUS:OLD
 FORMAT:FORMATTED              ACCESS:SEQUENTIAL
 ACTION:READ


 OPENED ./external/k2.dat
 FILE TYPE:OPEN/CLOSE   UNIT 1059   STATUS:OLD
 FORMAT:FORMATTED              ACCESS:SEQUENTIAL
 ACTION:READ


 OPENED ./external/k3.dat
 FILE TYPE:OPEN/CLOSE   UNIT 1060   STATUS:OLD
 FORMAT:FORMATTED              ACCESS:SEQUENTIAL
 ACTION:READ


 OPENED ./external/k4.dat
 FILE TYPE:OPEN/CLOSE   UNIT 1061   STATUS:OLD
 FORMAT:FORMATTED              ACCESS:SEQUENTIAL
 ACTION:READ


 OPENED ./external/k5.dat
 FILE TYPE:OPEN/CLOSE   UNIT 1062   STATUS:OLD
 FORMAT:FORMATTED              ACCESS:SEQUENTIAL
 ACTION:READ


 OPENED ./external/k6.dat
 FILE TYPE:OPEN/CLOSE   UNIT 1063   STATUS:OLD
 FORMAT:FORMATTED              ACCESS:SEQUENTIAL
 ACTION:READ


 OPENED ./external/k7.dat
 FILE TYPE:OPEN/CLOSE   UNIT 1064   STATUS:OLD
 FORMAT:FORMATTED              ACCESS:SEQUENTIAL
 ACTION:READ


 OPENED ./external/k8.dat
 FILE TYPE:OPEN/CLOSE   UNIT 1065   STATUS:OLD
 FORMAT:FORMATTED              ACCESS:SEQUENTIAL
 ACTION:READ


 OPENED ./external/k9.dat
 FILE TYPE:OPEN/CLOSE   UNIT 1066   STATUS:OLD
 FORMAT:FORMATTED              ACCESS:SEQUENTIAL
 ACTION:READ


 OPENED ./external/k10.dat
 FILE TYPE:OPEN/CLOSE   UNIT 1067   STATUS:OLD
 FORMAT:FORMATTED              ACCESS:SEQUENTIAL
 ACTION:READ


 OPENED ./external/k11.dat
 FILE TYPE:OPEN/CLOSE   UNIT 1068   STATUS:OLD
 FORMAT:FORMATTED              ACCESS:SEQUENTIAL
 ACTION:READ


 OPENED ./external/k12.dat
 FILE TYPE:OPEN/CLOSE   UNIT 1069   STATUS:OLD
 FORMAT:FORMATTED              ACCESS:SEQUENTIAL
 ACTION:READ


 OPENED ./external/k330.dat
 FILE TYPE:OPEN/CLOSE   UNIT 1070   STATUS:OLD
 FORMAT:FORMATTED              ACCESS:SEQUENTIAL
 ACTION:READ


 OPENED ./external/k331.dat
 FILE TYPE:OPEN/CLOSE   UNIT 1071   STATUS:OLD
 FORMAT:FORMATTED              ACCESS:SEQUENTIAL
 ACTION:READ


 OPENED ./external/k332.dat
 FILE TYPE:OPEN/CLOSE   UNIT 1072   STATUS:OLD
 FORMAT:FORMATTED              ACCESS:SEQUENTIAL
 ACTION:READ


 OPENED ./external/k333.dat
 FILE TYPE:OPEN/CLOSE   UNIT 1073   STATUS:OLD
 FORMAT:FORMATTED              ACCESS:SEQUENTIAL
 ACTION:READ


 OPENED ./external/k334.dat
 FILE TYPE:OPEN/CLOSE   UNIT 1074   STATUS:OLD
 FORMAT:FORMATTED              ACCESS:SEQUENTIAL
 ACTION:READ


 OPENED ./external/k335.dat
 FILE TYPE:OPEN/CLOSE   UNIT 1075   STATUS:OLD
 FORMAT:FORMATTED              ACCESS:SEQUENTIAL
 ACTION:READ


 OPENED ./external/k336.dat
 FILE TYPE:OPEN/CLOSE   UNIT 1076   STATUS:OLD
 FORMAT:FORMATTED              ACCESS:SEQUENTIAL
 ACTION:READ


 OPENED ./external/k337.dat
 FILE TYPE:OPEN/CLOSE   UNIT 1077   STATUS:OLD
 FORMAT:FORMATTED              ACCESS:SEQUENTIAL
 ACTION:READ


 OPENED ./external/k338.dat
 FILE TYPE:OPEN/CLOSE   UNIT 1078   STATUS:OLD
 FORMAT:FORMATTED              ACCESS:SEQUENTIAL
 ACTION:READ


 OPENED ./external/k339.dat
 FILE TYPE:OPEN/CLOSE   UNIT 1079   STATUS:OLD
 FORMAT:FORMATTED              ACCESS:SEQUENTIAL
 ACTION:READ


 OPENED ./external/k3310.dat
 FILE TYPE:OPEN/CLOSE   UNIT 1080   STATUS:OLD
 FORMAT:FORMATTED              ACCESS:SEQUENTIAL
 ACTION:READ


 OPENED ./external/k3311.dat
 FILE TYPE:OPEN/CLOSE   UNIT 1081   STATUS:OLD
 FORMAT:FORMATTED              ACCESS:SEQUENTIAL
 ACTION:READ


 OPENED ./external/k3312.dat
 FILE TYPE:OPEN/CLOSE   UNIT 1082   STATUS:OLD
 FORMAT:FORMATTED              ACCESS:SEQUENTIAL
 ACTION:READ

 K22 not provided.  Assuming K22 = K.
 END PROCESSING GRIDDATA

 STO -- STORAGE PACKAGE, VERSION 1, 5/19/2014 INPUT READ FROM UNIT 1008


 PROCESSING STORAGE OPTIONS
    CELL-BY-CELL FLOW INFORMATION WILL BE SAVED TO BINARY FILE WHENEVER ICBCFL IS NOT ZERO.
 END OF STORAGE OPTIONS
 PROCESSING GRIDDATA

                 ICONVERT = 1

 OPENED ./external/ss0.dat
 FILE TYPE:OPEN/CLOSE   UNIT 1083   STATUS:OLD
 FORMAT:FORMATTED              ACCESS:SEQUENTIAL
 ACTION:READ


 OPENED ./external/ss1.dat
 FILE TYPE:OPEN/CLOSE   UNIT 1084   STATUS:OLD
 FORMAT:FORMATTED              ACCESS:SEQUENTIAL
 ACTION:READ


 OPENED ./external/ss2.dat
 FILE TYPE:OPEN/CLOSE   UNIT 1085   STATUS:OLD
 FORMAT:FORMATTED              ACCESS:SEQUENTIAL
 ACTION:READ


 OPENED ./external/ss3.dat
 FILE TYPE:OPEN/CLOSE   UNIT 1086   STATUS:OLD
 FORMAT:FORMATTED              ACCESS:SEQUENTIAL
 ACTION:READ


 OPENED ./external/ss4.dat
 FILE TYPE:OPEN/CLOSE   UNIT 1087   STATUS:OLD
 FORMAT:FORMATTED              ACCESS:SEQUENTIAL
 ACTION:READ


 OPENED ./external/ss5.dat
 FILE TYPE:OPEN/CLOSE   UNIT 1088   STATUS:OLD
 FORMAT:FORMATTED              ACCESS:SEQUENTIAL
 ACTION:READ


 OPENED ./external/ss6.dat
 FILE TYPE:OPEN/CLOSE   UNIT 1089   STATUS:OLD
 FORMAT:FORMATTED              ACCESS:SEQUENTIAL
 ACTION:READ


 OPENED ./external/ss7.dat
 FILE TYPE:OPEN/CLOSE   UNIT 1090   STATUS:OLD
 FORMAT:FORMATTED              ACCESS:SEQUENTIAL
 ACTION:READ


 OPENED ./external/ss8.dat
 FILE TYPE:OPEN/CLOSE   UNIT 1091   STATUS:OLD
 FORMAT:FORMATTED              ACCESS:SEQUENTIAL
 ACTION:READ


 OPENED ./external/ss9.dat
 FILE TYPE:OPEN/CLOSE   UNIT 1092   STATUS:OLD
 FORMAT:FORMATTED              ACCESS:SEQUENTIAL
 ACTION:READ


 OPENED ./external/ss10.dat
 FILE TYPE:OPEN/CLOSE   UNIT 1093   STATUS:OLD
 FORMAT:FORMATTED              ACCESS:SEQUENTIAL
 ACTION:READ


 OPENED ./external/ss11.dat
 FILE TYPE:OPEN/CLOSE   UNIT 1094   STATUS:OLD
 FORMAT:FORMATTED              ACCESS:SEQUENTIAL
 ACTION:READ


 OPENED ./external/ss12.dat
 FILE TYPE:OPEN/CLOSE   UNIT 1095   STATUS:OLD
 FORMAT:FORMATTED              ACCESS:SEQUENTIAL
 ACTION:READ


 OPENED ./external/sy0.dat
 FILE TYPE:OPEN/CLOSE   UNIT 1096   STATUS:OLD
 FORMAT:FORMATTED              ACCESS:SEQUENTIAL
 ACTION:READ


 OPENED ./external/sy1.dat
 FILE TYPE:OPEN/CLOSE   UNIT 1097   STATUS:OLD
 FORMAT:FORMATTED              ACCESS:SEQUENTIAL
 ACTION:READ


 OPENED ./external/sy2.dat
 FILE TYPE:OPEN/CLOSE   UNIT 1098   STATUS:OLD
 FORMAT:FORMATTED              ACCESS:SEQUENTIAL
 ACTION:READ


 OPENED ./external/sy3.dat
 FILE TYPE:OPEN/CLOSE   UNIT 1099   STATUS:OLD
 FORMAT:FORMATTED              ACCESS:SEQUENTIAL
 ACTION:READ


 OPENED ./external/sy4.dat
 FILE TYPE:OPEN/CLOSE   UNIT 1100   STATUS:OLD
 FORMAT:FORMATTED              ACCESS:SEQUENTIAL
 ACTION:READ


 OPENED ./external/sy5.dat
 FILE TYPE:OPEN/CLOSE   UNIT 1101   STATUS:OLD
 FORMAT:FORMATTED              ACCESS:SEQUENTIAL
 ACTION:READ


 OPENED ./external/sy6.dat
 FILE TYPE:OPEN/CLOSE   UNIT 1102   STATUS:OLD
 FORMAT:FORMATTED              ACCESS:SEQUENTIAL
 ACTION:READ


 OPENED ./external/sy7.dat
 FILE TYPE:OPEN/CLOSE   UNIT 1103   STATUS:OLD
 FORMAT:FORMATTED              ACCESS:SEQUENTIAL
 ACTION:READ


 OPENED ./external/sy8.dat
 FILE TYPE:OPEN/CLOSE   UNIT 1104   STATUS:OLD
 FORMAT:FORMATTED              ACCESS:SEQUENTIAL
 ACTION:READ


 OPENED ./external/sy9.dat
 FILE TYPE:OPEN/CLOSE   UNIT 1105   STATUS:OLD
 FORMAT:FORMATTED              ACCESS:SEQUENTIAL
 ACTION:READ


 OPENED ./external/sy10.dat
 FILE TYPE:OPEN/CLOSE   UNIT 1106   STATUS:OLD
 FORMAT:FORMATTED              ACCESS:SEQUENTIAL
 ACTION:READ


 OPENED ./external/sy11.dat
 FILE TYPE:OPEN/CLOSE   UNIT 1107   STATUS:OLD
 FORMAT:FORMATTED              ACCESS:SEQUENTIAL
 ACTION:READ


 OPENED ./external/sy12.dat
 FILE TYPE:OPEN/CLOSE   UNIT 1108   STATUS:OLD
 FORMAT:FORMATTED              ACCESS:SEQUENTIAL
 ACTION:READ

 END PROCESSING GRIDDATA

The observation utility is active for "SHELLMOUND"

Processing observation options:

Text output number of digits of precision set to: 10
The PRINT_INPUT option has been specified.


 OBSERVATIONS READ FROM FILE "shellmound.obs"
 ----------------------------------------------------------------------------------------------------------------------------------------------------------------------------------------------------------------------------
 NAME                                     TYPE                                       TIME         LOCATION DATA                              OUTPUT FILENAME
 ----------------------------------------------------------------------------------------------------------------------------------------------------------------------------------------------------------------------------
 3131090171601                            CONTINUOUS  HEAD                           ALL TIMES    "4 27 28"                                  shellmound.head.obs
 3131090171601                            CONTINUOUS  HEAD                           ALL TIMES    "5 27 28"                                  shellmound.head.obs
 3131090171601                            CONTINUOUS  HEAD                           ALL TIMES    "6 27 28"                                  shellmound.head.obs
 3131090171601                            CONTINUOUS  HEAD                           ALL TIMES    "7 27 28"                                  shellmound.head.obs
 3131090171601                            CONTINUOUS  HEAD                           ALL TIMES    "8 27 28"                                  shellmound.head.obs
 3131090171601                            CONTINUOUS  HEAD                           ALL TIMES    "9 27 28"                                  shellmound.head.obs
 3131090171601                            CONTINUOUS  HEAD                           ALL TIMES    "10 27 28"                                 shellmound.head.obs
 3131090171601                            CONTINUOUS  HEAD                           ALL TIMES    "11 27 28"                                 shellmound.head.obs
 3131090171601                            CONTINUOUS  HEAD                           ALL TIMES    "12 27 28"                                 shellmound.head.obs
 3131090171601                            CONTINUOUS  HEAD                           ALL TIMES    "13 27 28"                                 shellmound.head.obs
 3144090145401                            CONTINUOUS  HEAD                           ALL TIMES    "4 27 30"                                  shellmound.head.obs
 3144090145401                            CONTINUOUS  HEAD                           ALL TIMES    "5 27 30"                                  shellmound.head.obs
 3144090145401                            CONTINUOUS  HEAD                           ALL TIMES    "6 27 30"                                  shellmound.head.obs
 3144090145401                            CONTINUOUS  HEAD                           ALL TIMES    "7 27 30"                                  shellmound.head.obs
 3144090145401                            CONTINUOUS  HEAD                           ALL TIMES    "8 27 30"                                  shellmound.head.obs
 3144090145401                            CONTINUOUS  HEAD                           ALL TIMES    "9 27 30"                                  shellmound.head.obs
 3144090145401                            CONTINUOUS  HEAD                           ALL TIMES    "10 27 30"                                 shellmound.head.obs
 3144090145401                            CONTINUOUS  HEAD                           ALL TIMES    "11 27 30"                                 shellmound.head.obs
 3144090145401                            CONTINUOUS  HEAD                           ALL TIMES    "12 27 30"                                 shellmound.head.obs
 3144090145401                            CONTINUOUS  HEAD                           ALL TIMES    "13 27 30"                                 shellmound.head.obs
 3148090142501                            CONTINUOUS  HEAD                           ALL TIMES    "4 27 31"                                  shellmound.head.obs
 3148090142501                            CONTINUOUS  HEAD                           ALL TIMES    "5 27 31"                                  shellmound.head.obs
 3148090142501                            CONTINUOUS  HEAD                           ALL TIMES    "6 27 31"                                  shellmound.head.obs
 3148090142501                            CONTINUOUS  HEAD                           ALL TIMES    "7 27 31"                                  shellmound.head.obs
 3148090142501                            CONTINUOUS  HEAD                           ALL TIMES    "8 27 31"                                  shellmound.head.obs
 3148090142501                            CONTINUOUS  HEAD                           ALL TIMES    "9 27 31"                                  shellmound.head.obs
 3148090142501                            CONTINUOUS  HEAD                           ALL TIMES    "10 27 31"                                 shellmound.head.obs
 3148090142501                            CONTINUOUS  HEAD                           ALL TIMES    "11 27 31"                                 shellmound.head.obs
 3148090142501                            CONTINUOUS  HEAD                           ALL TIMES    "12 27 31"                                 shellmound.head.obs
 3148090142501                            CONTINUOUS  HEAD                           ALL TIMES    "13 27 31"                                 shellmound.head.obs
 3154090175201                            CONTINUOUS  HEAD                           ALL TIMES    "4 27 25"                                  shellmound.head.obs
 3154090175201                            CONTINUOUS  HEAD                           ALL TIMES    "5 27 25"                                  shellmound.head.obs
 3154090175201                            CONTINUOUS  HEAD                           ALL TIMES    "6 27 25"                                  shellmound.head.obs
 3154090175201                            CONTINUOUS  HEAD                           ALL TIMES    "7 27 25"                                  shellmound.head.obs
 3154090175201                            CONTINUOUS  HEAD                           ALL TIMES    "8 27 25"                                  shellmound.head.obs
 3154090175201                            CONTINUOUS  HEAD                           ALL TIMES    "9 27 25"                                  shellmound.head.obs
 3154090175201                            CONTINUOUS  HEAD                           ALL TIMES    "10 27 25"                                 shellmound.head.obs
 3154090175201                            CONTINUOUS  HEAD                           ALL TIMES    "11 27 25"                                 shellmound.head.obs
 3154090175201                            CONTINUOUS  HEAD                           ALL TIMES    "12 27 25"                                 shellmound.head.obs
 3154090175201                            CONTINUOUS  HEAD                           ALL TIMES    "13 27 25"                                 shellmound.head.obs
 3154090183901                            CONTINUOUS  HEAD                           ALL TIMES    "4 27 24"                                  shellmound.head.obs
 3154090183901                            CONTINUOUS  HEAD                           ALL TIMES    "5 27 24"                                  shellmound.head.obs
 3154090183901                            CONTINUOUS  HEAD                           ALL TIMES    "6 27 24"                                  shellmound.head.obs
 3154090183901                            CONTINUOUS  HEAD                           ALL TIMES    "7 27 24"                                  shellmound.head.obs
 3154090183901                            CONTINUOUS  HEAD                           ALL TIMES    "8 27 24"                                  shellmound.head.obs
 3154090183901                            CONTINUOUS  HEAD                           ALL TIMES    "9 27 24"                                  shellmound.head.obs
 3154090183901                            CONTINUOUS  HEAD                           ALL TIMES    "10 27 24"                                 shellmound.head.obs
 3154090183901                            CONTINUOUS  HEAD                           ALL TIMES    "11 27 24"                                 shellmound.head.obs
 3154090183901                            CONTINUOUS  HEAD                           ALL TIMES    "12 27 24"                                 shellmound.head.obs
 3154090183901                            CONTINUOUS  HEAD                           ALL TIMES    "13 27 24"                                 shellmound.head.obs
 3157090185501                            CONTINUOUS  HEAD                           ALL TIMES    "4 27 24"                                  shellmound.head.obs
 3157090185501                            CONTINUOUS  HEAD                           ALL TIMES    "5 27 24"                                  shellmound.head.obs
 3157090185501                            CONTINUOUS  HEAD                           ALL TIMES    "6 27 24"                                  shellmound.head.obs
 3157090185501                            CONTINUOUS  HEAD                           ALL TIMES    "7 27 24"                                  shellmound.head.obs
 3157090185501                            CONTINUOUS  HEAD                           ALL TIMES    "8 27 24"                                  shellmound.head.obs
 3157090185501                            CONTINUOUS  HEAD                           ALL TIMES    "9 27 24"                                  shellmound.head.obs
 3157090185501                            CONTINUOUS  HEAD                           ALL TIMES    "10 27 24"                                 shellmound.head.obs
 3157090185501                            CONTINUOUS  HEAD                           ALL TIMES    "11 27 24"                                 shellmound.head.obs
 3157090185501                            CONTINUOUS  HEAD                           ALL TIMES    "12 27 24"                                 shellmound.head.obs
 3157090185501                            CONTINUOUS  HEAD                           ALL TIMES    "13 27 24"                                 shellmound.head.obs
 3203090205301                            CONTINUOUS  HEAD                           ALL TIMES    "4 27 21"                                  shellmound.head.obs
 3203090205301                            CONTINUOUS  HEAD                           ALL TIMES    "5 27 21"                                  shellmound.head.obs
 3203090205301                            CONTINUOUS  HEAD                           ALL TIMES    "6 27 21"                                  shellmound.head.obs
 3203090205301                            CONTINUOUS  HEAD                           ALL TIMES    "7 27 21"                                  shellmound.head.obs
 3203090205301                            CONTINUOUS  HEAD                           ALL TIMES    "8 27 21"                                  shellmound.head.obs
 3203090205301                            CONTINUOUS  HEAD                           ALL TIMES    "9 27 21"                                  shellmound.head.obs
 3203090205301                            CONTINUOUS  HEAD                           ALL TIMES    "10 27 21"                                 shellmound.head.obs
 3203090205301                            CONTINUOUS  HEAD                           ALL TIMES    "11 27 21"                                 shellmound.head.obs
 3203090205301                            CONTINUOUS  HEAD                           ALL TIMES    "12 27 21"                                 shellmound.head.obs
 3203090205301                            CONTINUOUS  HEAD                           ALL TIMES    "13 27 21"                                 shellmound.head.obs
 3206090185401                            CONTINUOUS  HEAD                           ALL TIMES    "4 27 24"                                  shellmound.head.obs
 3206090185401                            CONTINUOUS  HEAD                           ALL TIMES    "5 27 24"                                  shellmound.head.obs
 3206090185401                            CONTINUOUS  HEAD                           ALL TIMES    "6 27 24"                                  shellmound.head.obs
 3206090185401                            CONTINUOUS  HEAD                           ALL TIMES    "7 27 24"                                  shellmound.head.obs
 3206090185401                            CONTINUOUS  HEAD                           ALL TIMES    "8 27 24"                                  shellmound.head.obs
 3206090185401                            CONTINUOUS  HEAD                           ALL TIMES    "9 27 24"                                  shellmound.head.obs
 3206090185401                            CONTINUOUS  HEAD                           ALL TIMES    "10 27 24"                                 shellmound.head.obs
 3206090185401                            CONTINUOUS  HEAD                           ALL TIMES    "11 27 24"                                 shellmound.head.obs
 3206090185401                            CONTINUOUS  HEAD                           ALL TIMES    "12 27 24"                                 shellmound.head.obs
 3206090185401                            CONTINUOUS  HEAD                           ALL TIMES    "13 27 24"                                 shellmound.head.obs
 3209090220401                            CONTINUOUS  HEAD                           ALL TIMES    "4 27 19"                                  shellmound.head.obs
 3209090220401                            CONTINUOUS  HEAD                           ALL TIMES    "5 27 19"                                  shellmound.head.obs
 3209090220401                            CONTINUOUS  HEAD                           ALL TIMES    "6 27 19"                                  shellmound.head.obs
 3209090220401                            CONTINUOUS  HEAD                           ALL TIMES    "7 27 19"                                  shellmound.head.obs
 3209090220401                            CONTINUOUS  HEAD                           ALL TIMES    "8 27 19"                                  shellmound.head.obs
 3209090220401                            CONTINUOUS  HEAD                           ALL TIMES    "9 27 19"                                  shellmound.head.obs
 3209090220401                            CONTINUOUS  HEAD                           ALL TIMES    "10 27 19"                                 shellmound.head.obs
 3209090220401                            CONTINUOUS  HEAD                           ALL TIMES    "11 27 19"                                 shellmound.head.obs
 3209090220401                            CONTINUOUS  HEAD                           ALL TIMES    "12 27 19"                                 shellmound.head.obs
 3209090220401                            CONTINUOUS  HEAD                           ALL TIMES    "13 27 19"                                 shellmound.head.obs
 3219090145601                            CONTINUOUS  HEAD                           ALL TIMES    "4 26 30"                                  shellmound.head.obs
 3219090145601                            CONTINUOUS  HEAD                           ALL TIMES    "5 26 30"                                  shellmound.head.obs
 3219090145601                            CONTINUOUS  HEAD                           ALL TIMES    "6 26 30"                                  shellmound.head.obs
 3219090145601                            CONTINUOUS  HEAD                           ALL TIMES    "7 26 30"                                  shellmound.head.obs
 3219090145601                            CONTINUOUS  HEAD                           ALL TIMES    "8 26 30"                                  shellmound.head.obs
 3219090145601                            CONTINUOUS  HEAD                           ALL TIMES    "9 26 30"                                  shellmound.head.obs
 3219090145601                            CONTINUOUS  HEAD                           ALL TIMES    "10 26 30"                                 shellmound.head.obs
 3219090145601                            CONTINUOUS  HEAD                           ALL TIMES    "11 26 30"                                 shellmound.head.obs
 3219090145601                            CONTINUOUS  HEAD                           ALL TIMES    "12 26 30"                                 shellmound.head.obs
 3219090145601                            CONTINUOUS  HEAD                           ALL TIMES    "13 26 30"                                 shellmound.head.obs
 3220090151201                            CONTINUOUS  HEAD                           ALL TIMES    "4 26 29"                                  shellmound.head.obs
 3220090151201                            CONTINUOUS  HEAD                           ALL TIMES    "5 26 29"                                  shellmound.head.obs
 3220090151201                            CONTINUOUS  HEAD                           ALL TIMES    "6 26 29"                                  shellmound.head.obs
 3220090151201                            CONTINUOUS  HEAD                           ALL TIMES    "7 26 29"                                  shellmound.head.obs
 3220090151201                            CONTINUOUS  HEAD                           ALL TIMES    "8 26 29"                                  shellmound.head.obs
 3220090151201                            CONTINUOUS  HEAD                           ALL TIMES    "9 26 29"                                  shellmound.head.obs
 3220090151201                            CONTINUOUS  HEAD                           ALL TIMES    "10 26 29"                                 shellmound.head.obs
 3220090151201                            CONTINUOUS  HEAD                           ALL TIMES    "11 26 29"                                 shellmound.head.obs
 3220090151201                            CONTINUOUS  HEAD                           ALL TIMES    "12 26 29"                                 shellmound.head.obs
 3220090151201                            CONTINUOUS  HEAD                           ALL TIMES    "13 26 29"                                 shellmound.head.obs
 3224090252801                            CONTINUOUS  HEAD                           ALL TIMES    "4 27 14"                                  shellmound.head.obs
 3224090252801                            CONTINUOUS  HEAD                           ALL TIMES    "5 27 14"                                  shellmound.head.obs
 3224090252801                            CONTINUOUS  HEAD                           ALL TIMES    "6 27 14"                                  shellmound.head.obs
 3224090252801                            CONTINUOUS  HEAD                           ALL TIMES    "7 27 14"                                  shellmound.head.obs
 3224090252801                            CONTINUOUS  HEAD                           ALL TIMES    "8 27 14"                                  shellmound.head.obs
 3224090252801                            CONTINUOUS  HEAD                           ALL TIMES    "9 27 14"                                  shellmound.head.obs
 3224090252801                            CONTINUOUS  HEAD                           ALL TIMES    "10 27 14"                                 shellmound.head.obs
 3224090252801                            CONTINUOUS  HEAD                           ALL TIMES    "11 27 14"                                 shellmound.head.obs
 3224090252801                            CONTINUOUS  HEAD                           ALL TIMES    "12 27 14"                                 shellmound.head.obs
 3224090252801                            CONTINUOUS  HEAD                           ALL TIMES    "13 27 14"                                 shellmound.head.obs
 3225090284501                            CONTINUOUS  HEAD                           ALL TIMES    "1 27 8"                                   shellmound.head.obs
 3225090284501                            CONTINUOUS  HEAD                           ALL TIMES    "2 27 8"                                   shellmound.head.obs
 3225090284501                            CONTINUOUS  HEAD                           ALL TIMES    "3 27 8"                                   shellmound.head.obs
 3225090284501                            CONTINUOUS  HEAD                           ALL TIMES    "4 27 8"                                   shellmound.head.obs
 3225090284501                            CONTINUOUS  HEAD                           ALL TIMES    "5 27 8"                                   shellmound.head.obs
 3225090284501                            CONTINUOUS  HEAD                           ALL TIMES    "6 27 8"                                   shellmound.head.obs
 3225090284501                            CONTINUOUS  HEAD                           ALL TIMES    "7 27 8"                                   shellmound.head.obs
 3225090284501                            CONTINUOUS  HEAD                           ALL TIMES    "8 27 8"                                   shellmound.head.obs
 3225090284501                            CONTINUOUS  HEAD                           ALL TIMES    "9 27 8"                                   shellmound.head.obs
 3225090284501                            CONTINUOUS  HEAD                           ALL TIMES    "10 27 8"                                  shellmound.head.obs
 3225090284501                            CONTINUOUS  HEAD                           ALL TIMES    "11 27 8"                                  shellmound.head.obs
 3225090284501                            CONTINUOUS  HEAD                           ALL TIMES    "12 27 8"                                  shellmound.head.obs
 3225090284501                            CONTINUOUS  HEAD                           ALL TIMES    "13 27 8"                                  shellmound.head.obs
 3226090283701                            CONTINUOUS  HEAD                           ALL TIMES    "1 27 9"                                   shellmound.head.obs
 3226090283701                            CONTINUOUS  HEAD                           ALL TIMES    "2 27 9"                                   shellmound.head.obs
 3226090283701                            CONTINUOUS  HEAD                           ALL TIMES    "3 27 9"                                   shellmound.head.obs
 3226090283701                            CONTINUOUS  HEAD                           ALL TIMES    "4 27 9"                                   shellmound.head.obs
 3226090283701                            CONTINUOUS  HEAD                           ALL TIMES    "5 27 9"                                   shellmound.head.obs
 3226090283701                            CONTINUOUS  HEAD                           ALL TIMES    "6 27 9"                                   shellmound.head.obs
 3226090283701                            CONTINUOUS  HEAD                           ALL TIMES    "7 27 9"                                   shellmound.head.obs
 3226090283701                            CONTINUOUS  HEAD                           ALL TIMES    "8 27 9"                                   shellmound.head.obs
 3226090283701                            CONTINUOUS  HEAD                           ALL TIMES    "9 27 9"                                   shellmound.head.obs
 3226090283701                            CONTINUOUS  HEAD                           ALL TIMES    "10 27 9"                                  shellmound.head.obs
 3226090283701                            CONTINUOUS  HEAD                           ALL TIMES    "11 27 9"                                  shellmound.head.obs
 3226090283701                            CONTINUOUS  HEAD                           ALL TIMES    "12 27 9"                                  shellmound.head.obs
 3226090283701                            CONTINUOUS  HEAD                           ALL TIMES    "13 27 9"                                  shellmound.head.obs
 3227090174201                            CONTINUOUS  HEAD                           ALL TIMES    "4 26 25"                                  shellmound.head.obs
 3227090174201                            CONTINUOUS  HEAD                           ALL TIMES    "5 26 25"                                  shellmound.head.obs
 3227090174201                            CONTINUOUS  HEAD                           ALL TIMES    "6 26 25"                                  shellmound.head.obs
 3227090174201                            CONTINUOUS  HEAD                           ALL TIMES    "7 26 25"                                  shellmound.head.obs
 3227090174201                            CONTINUOUS  HEAD                           ALL TIMES    "8 26 25"                                  shellmound.head.obs
 3227090174201                            CONTINUOUS  HEAD                           ALL TIMES    "9 26 25"                                  shellmound.head.obs
 3227090174201                            CONTINUOUS  HEAD                           ALL TIMES    "10 26 25"                                 shellmound.head.obs
 3227090174201                            CONTINUOUS  HEAD                           ALL TIMES    "11 26 25"                                 shellmound.head.obs
 3227090174201                            CONTINUOUS  HEAD                           ALL TIMES    "12 26 25"                                 shellmound.head.obs
 3227090174201                            CONTINUOUS  HEAD                           ALL TIMES    "13 26 25"                                 shellmound.head.obs
 3228090273001                            CONTINUOUS  HEAD                           ALL TIMES    "1 27 10"                                  shellmound.head.obs
 3228090273001                            CONTINUOUS  HEAD                           ALL TIMES    "2 27 10"                                  shellmound.head.obs
 3228090273001                            CONTINUOUS  HEAD                           ALL TIMES    "3 27 10"                                  shellmound.head.obs
 3228090273001                            CONTINUOUS  HEAD                           ALL TIMES    "4 27 10"                                  shellmound.head.obs
 3228090273001                            CONTINUOUS  HEAD                           ALL TIMES    "5 27 10"                                  shellmound.head.obs
 3228090273001                            CONTINUOUS  HEAD                           ALL TIMES    "6 27 10"                                  shellmound.head.obs
 3228090273001                            CONTINUOUS  HEAD                           ALL TIMES    "7 27 10"                                  shellmound.head.obs
 3228090273001                            CONTINUOUS  HEAD                           ALL TIMES    "8 27 10"                                  shellmound.head.obs
 3228090273001                            CONTINUOUS  HEAD                           ALL TIMES    "9 27 10"                                  shellmound.head.obs
 3228090273001                            CONTINUOUS  HEAD                           ALL TIMES    "10 27 10"                                 shellmound.head.obs
 3228090273001                            CONTINUOUS  HEAD                           ALL TIMES    "11 27 10"                                 shellmound.head.obs
 3228090273001                            CONTINUOUS  HEAD                           ALL TIMES    "12 27 10"                                 shellmound.head.obs
 3228090273001                            CONTINUOUS  HEAD                           ALL TIMES    "13 27 10"                                 shellmound.head.obs
 3230090283401                            CONTINUOUS  HEAD                           ALL TIMES    "1 27 9"                                   shellmound.head.obs
 3230090283401                            CONTINUOUS  HEAD                           ALL TIMES    "2 27 9"                                   shellmound.head.obs
 3230090283401                            CONTINUOUS  HEAD                           ALL TIMES    "3 27 9"                                   shellmound.head.obs
 3230090283401                            CONTINUOUS  HEAD                           ALL TIMES    "4 27 9"                                   shellmound.head.obs
 3230090283401                            CONTINUOUS  HEAD                           ALL TIMES    "5 27 9"                                   shellmound.head.obs
 3230090283401                            CONTINUOUS  HEAD                           ALL TIMES    "6 27 9"                                   shellmound.head.obs
 3230090283401                            CONTINUOUS  HEAD                           ALL TIMES    "7 27 9"                                   shellmound.head.obs
 3230090283401                            CONTINUOUS  HEAD                           ALL TIMES    "8 27 9"                                   shellmound.head.obs
 3230090283401                            CONTINUOUS  HEAD                           ALL TIMES    "9 27 9"                                   shellmound.head.obs
 3230090283401                            CONTINUOUS  HEAD                           ALL TIMES    "10 27 9"                                  shellmound.head.obs
 3230090283401                            CONTINUOUS  HEAD                           ALL TIMES    "11 27 9"                                  shellmound.head.obs
 3230090283401                            CONTINUOUS  HEAD                           ALL TIMES    "12 27 9"                                  shellmound.head.obs
 3230090283401                            CONTINUOUS  HEAD                           ALL TIMES    "13 27 9"                                  shellmound.head.obs
 3230090285201                            CONTINUOUS  HEAD                           ALL TIMES    "1 27 8"                                   shellmound.head.obs
 3230090285201                            CONTINUOUS  HEAD                           ALL TIMES    "2 27 8"                                   shellmound.head.obs
 3230090285201                            CONTINUOUS  HEAD                           ALL TIMES    "3 27 8"                                   shellmound.head.obs
 3230090285201                            CONTINUOUS  HEAD                           ALL TIMES    "4 27 8"                                   shellmound.head.obs
 3230090285201                            CONTINUOUS  HEAD                           ALL TIMES    "5 27 8"                                   shellmound.head.obs
 3230090285201                            CONTINUOUS  HEAD                           ALL TIMES    "6 27 8"                                   shellmound.head.obs
 3230090285201                            CONTINUOUS  HEAD                           ALL TIMES    "7 27 8"                                   shellmound.head.obs
 3230090285201                            CONTINUOUS  HEAD                           ALL TIMES    "8 27 8"                                   shellmound.head.obs
 3230090285201                            CONTINUOUS  HEAD                           ALL TIMES    "9 27 8"                                   shellmound.head.obs
 3230090285201                            CONTINUOUS  HEAD                           ALL TIMES    "10 27 8"                                  shellmound.head.obs
 3230090285201                            CONTINUOUS  HEAD                           ALL TIMES    "11 27 8"                                  shellmound.head.obs
 3230090285201                            CONTINUOUS  HEAD                           ALL TIMES    "12 27 8"                                  shellmound.head.obs
 3230090285201                            CONTINUOUS  HEAD                           ALL TIMES    "13 27 8"                                  shellmound.head.obs
 3230090303801                            CONTINUOUS  HEAD                           ALL TIMES    "1 27 6"                                   shellmound.head.obs
 3230090303801                            CONTINUOUS  HEAD                           ALL TIMES    "2 27 6"                                   shellmound.head.obs
 3230090303801                            CONTINUOUS  HEAD                           ALL TIMES    "3 27 6"                                   shellmound.head.obs
 3230090303801                            CONTINUOUS  HEAD                           ALL TIMES    "4 27 6"                                   shellmound.head.obs
 3230090303801                            CONTINUOUS  HEAD                           ALL TIMES    "5 27 6"                                   shellmound.head.obs
 3230090303801                            CONTINUOUS  HEAD                           ALL TIMES    "6 27 6"                                   shellmound.head.obs
 3230090303801                            CONTINUOUS  HEAD                           ALL TIMES    "7 27 6"                                   shellmound.head.obs
 3230090303801                            CONTINUOUS  HEAD                           ALL TIMES    "8 27 6"                                   shellmound.head.obs
 3230090303801                            CONTINUOUS  HEAD                           ALL TIMES    "9 27 6"                                   shellmound.head.obs
 3230090303801                            CONTINUOUS  HEAD                           ALL TIMES    "10 27 6"                                  shellmound.head.obs
 3230090303801                            CONTINUOUS  HEAD                           ALL TIMES    "11 27 6"                                  shellmound.head.obs
 3230090303801                            CONTINUOUS  HEAD                           ALL TIMES    "12 27 6"                                  shellmound.head.obs
 3230090303801                            CONTINUOUS  HEAD                           ALL TIMES    "13 27 6"                                  shellmound.head.obs
 3231090213701                            CONTINUOUS  HEAD                           ALL TIMES    "4 27 19"                                  shellmound.head.obs
 3231090213701                            CONTINUOUS  HEAD                           ALL TIMES    "5 27 19"                                  shellmound.head.obs
 3231090213701                            CONTINUOUS  HEAD                           ALL TIMES    "6 27 19"                                  shellmound.head.obs
 3231090213701                            CONTINUOUS  HEAD                           ALL TIMES    "7 27 19"                                  shellmound.head.obs
 3231090213701                            CONTINUOUS  HEAD                           ALL TIMES    "8 27 19"                                  shellmound.head.obs
 3231090213701                            CONTINUOUS  HEAD                           ALL TIMES    "9 27 19"                                  shellmound.head.obs
 3231090213701                            CONTINUOUS  HEAD                           ALL TIMES    "10 27 19"                                 shellmound.head.obs
 3231090213701                            CONTINUOUS  HEAD                           ALL TIMES    "11 27 19"                                 shellmound.head.obs
 3231090213701                            CONTINUOUS  HEAD                           ALL TIMES    "12 27 19"                                 shellmound.head.obs
 3231090213701                            CONTINUOUS  HEAD                           ALL TIMES    "13 27 19"                                 shellmound.head.obs
 3232090212001                            CONTINUOUS  HEAD                           ALL TIMES    "4 26 20"                                  shellmound.head.obs
 3232090212001                            CONTINUOUS  HEAD                           ALL TIMES    "5 26 20"                                  shellmound.head.obs
 3232090212001                            CONTINUOUS  HEAD                           ALL TIMES    "6 26 20"                                  shellmound.head.obs
 3232090212001                            CONTINUOUS  HEAD                           ALL TIMES    "7 26 20"                                  shellmound.head.obs
 3232090212001                            CONTINUOUS  HEAD                           ALL TIMES    "8 26 20"                                  shellmound.head.obs
 3232090212001                            CONTINUOUS  HEAD                           ALL TIMES    "9 26 20"                                  shellmound.head.obs
 3232090212001                            CONTINUOUS  HEAD                           ALL TIMES    "10 26 20"                                 shellmound.head.obs
 3232090212001                            CONTINUOUS  HEAD                           ALL TIMES    "11 26 20"                                 shellmound.head.obs
 3232090212001                            CONTINUOUS  HEAD                           ALL TIMES    "12 26 20"                                 shellmound.head.obs
 3232090212001                            CONTINUOUS  HEAD                           ALL TIMES    "13 26 20"                                 shellmound.head.obs
 3232090273201                            CONTINUOUS  HEAD                           ALL TIMES    "1 27 10"                                  shellmound.head.obs
 3232090273201                            CONTINUOUS  HEAD                           ALL TIMES    "2 27 10"                                  shellmound.head.obs
 3232090273201                            CONTINUOUS  HEAD                           ALL TIMES    "3 27 10"                                  shellmound.head.obs
 3232090273201                            CONTINUOUS  HEAD                           ALL TIMES    "4 27 10"                                  shellmound.head.obs
 3232090273201                            CONTINUOUS  HEAD                           ALL TIMES    "5 27 10"                                  shellmound.head.obs
 3232090273201                            CONTINUOUS  HEAD                           ALL TIMES    "6 27 10"                                  shellmound.head.obs
 3232090273201                            CONTINUOUS  HEAD                           ALL TIMES    "7 27 10"                                  shellmound.head.obs
 3232090273201                            CONTINUOUS  HEAD                           ALL TIMES    "8 27 10"                                  shellmound.head.obs
 3232090273201                            CONTINUOUS  HEAD                           ALL TIMES    "9 27 10"                                  shellmound.head.obs
 3232090273201                            CONTINUOUS  HEAD                           ALL TIMES    "10 27 10"                                 shellmound.head.obs
 3232090273201                            CONTINUOUS  HEAD                           ALL TIMES    "11 27 10"                                 shellmound.head.obs
 3232090273201                            CONTINUOUS  HEAD                           ALL TIMES    "12 27 10"                                 shellmound.head.obs
 3232090273201                            CONTINUOUS  HEAD                           ALL TIMES    "13 27 10"                                 shellmound.head.obs
 3232090273202                            CONTINUOUS  HEAD                           ALL TIMES    "1 27 10"                                  shellmound.head.obs
 3232090273202                            CONTINUOUS  HEAD                           ALL TIMES    "2 27 10"                                  shellmound.head.obs
 3232090273202                            CONTINUOUS  HEAD                           ALL TIMES    "3 27 10"                                  shellmound.head.obs
 3232090273202                            CONTINUOUS  HEAD                           ALL TIMES    "4 27 10"                                  shellmound.head.obs
 3232090273202                            CONTINUOUS  HEAD                           ALL TIMES    "5 27 10"                                  shellmound.head.obs
 3232090273202                            CONTINUOUS  HEAD                           ALL TIMES    "6 27 10"                                  shellmound.head.obs
 3232090273202                            CONTINUOUS  HEAD                           ALL TIMES    "7 27 10"                                  shellmound.head.obs
 3232090273202                            CONTINUOUS  HEAD                           ALL TIMES    "8 27 10"                                  shellmound.head.obs
 3232090273202                            CONTINUOUS  HEAD                           ALL TIMES    "9 27 10"                                  shellmound.head.obs
 3232090273202                            CONTINUOUS  HEAD                           ALL TIMES    "10 27 10"                                 shellmound.head.obs
 3232090273202                            CONTINUOUS  HEAD                           ALL TIMES    "11 27 10"                                 shellmound.head.obs
 3232090273202                            CONTINUOUS  HEAD                           ALL TIMES    "12 27 10"                                 shellmound.head.obs
 3232090273202                            CONTINUOUS  HEAD                           ALL TIMES    "13 27 10"                                 shellmound.head.obs
 3232090294401                            CONTINUOUS  HEAD                           ALL TIMES    "1 27 7"                                   shellmound.head.obs
 3232090294401                            CONTINUOUS  HEAD                           ALL TIMES    "2 27 7"                                   shellmound.head.obs
 3232090294401                            CONTINUOUS  HEAD                           ALL TIMES    "3 27 7"                                   shellmound.head.obs
 3232090294401                            CONTINUOUS  HEAD                           ALL TIMES    "4 27 7"                                   shellmound.head.obs
 3232090294401                            CONTINUOUS  HEAD                           ALL TIMES    "5 27 7"                                   shellmound.head.obs
 3232090294401                            CONTINUOUS  HEAD                           ALL TIMES    "6 27 7"                                   shellmound.head.obs
 3232090294401                            CONTINUOUS  HEAD                           ALL TIMES    "7 27 7"                                   shellmound.head.obs
 3232090294401                            CONTINUOUS  HEAD                           ALL TIMES    "8 27 7"                                   shellmound.head.obs
 3232090294401                            CONTINUOUS  HEAD                           ALL TIMES    "9 27 7"                                   shellmound.head.obs
 3232090294401                            CONTINUOUS  HEAD                           ALL TIMES    "10 27 7"                                  shellmound.head.obs
 3232090294401                            CONTINUOUS  HEAD                           ALL TIMES    "11 27 7"                                  shellmound.head.obs
 3232090294401                            CONTINUOUS  HEAD                           ALL TIMES    "12 27 7"                                  shellmound.head.obs
 3232090294401                            CONTINUOUS  HEAD                           ALL TIMES    "13 27 7"                                  shellmound.head.obs
 3233090163101                            CONTINUOUS  HEAD                           ALL TIMES    "4 26 27"                                  shellmound.head.obs
 3233090163101                            CONTINUOUS  HEAD                           ALL TIMES    "5 26 27"                                  shellmound.head.obs
 3233090163101                            CONTINUOUS  HEAD                           ALL TIMES    "6 26 27"                                  shellmound.head.obs
 3233090163101                            CONTINUOUS  HEAD                           ALL TIMES    "7 26 27"                                  shellmound.head.obs
 3233090163101                            CONTINUOUS  HEAD                           ALL TIMES    "8 26 27"                                  shellmound.head.obs
 3233090163101                            CONTINUOUS  HEAD                           ALL TIMES    "9 26 27"                                  shellmound.head.obs
 3233090163101                            CONTINUOUS  HEAD                           ALL TIMES    "10 26 27"                                 shellmound.head.obs
 3233090163101                            CONTINUOUS  HEAD                           ALL TIMES    "11 26 27"                                 shellmound.head.obs
 3233090163101                            CONTINUOUS  HEAD                           ALL TIMES    "12 26 27"                                 shellmound.head.obs
 3233090163101                            CONTINUOUS  HEAD                           ALL TIMES    "13 26 27"                                 shellmound.head.obs
 3233090292201                            CONTINUOUS  HEAD                           ALL TIMES    "1 27 7"                                   shellmound.head.obs
 3233090292201                            CONTINUOUS  HEAD                           ALL TIMES    "2 27 7"                                   shellmound.head.obs
 3233090292201                            CONTINUOUS  HEAD                           ALL TIMES    "3 27 7"                                   shellmound.head.obs
 3233090292201                            CONTINUOUS  HEAD                           ALL TIMES    "4 27 7"                                   shellmound.head.obs
 3233090292201                            CONTINUOUS  HEAD                           ALL TIMES    "5 27 7"                                   shellmound.head.obs
 3233090292201                            CONTINUOUS  HEAD                           ALL TIMES    "6 27 7"                                   shellmound.head.obs
 3233090292201                            CONTINUOUS  HEAD                           ALL TIMES    "7 27 7"                                   shellmound.head.obs
 3233090292201                            CONTINUOUS  HEAD                           ALL TIMES    "8 27 7"                                   shellmound.head.obs
 3233090292201                            CONTINUOUS  HEAD                           ALL TIMES    "9 27 7"                                   shellmound.head.obs
 3233090292201                            CONTINUOUS  HEAD                           ALL TIMES    "10 27 7"                                  shellmound.head.obs
 3233090292201                            CONTINUOUS  HEAD                           ALL TIMES    "11 27 7"                                  shellmound.head.obs
 3233090292201                            CONTINUOUS  HEAD                           ALL TIMES    "12 27 7"                                  shellmound.head.obs
 3233090292201                            CONTINUOUS  HEAD                           ALL TIMES    "13 27 7"                                  shellmound.head.obs
 3233090302101                            CONTINUOUS  HEAD                           ALL TIMES    "1 27 6"                                   shellmound.head.obs
 3233090302101                            CONTINUOUS  HEAD                           ALL TIMES    "2 27 6"                                   shellmound.head.obs
 3233090302101                            CONTINUOUS  HEAD                           ALL TIMES    "3 27 6"                                   shellmound.head.obs
 3233090302101                            CONTINUOUS  HEAD                           ALL TIMES    "4 27 6"                                   shellmound.head.obs
 3233090302101                            CONTINUOUS  HEAD                           ALL TIMES    "5 27 6"                                   shellmound.head.obs
 3233090302101                            CONTINUOUS  HEAD                           ALL TIMES    "6 27 6"                                   shellmound.head.obs
 3233090302101                            CONTINUOUS  HEAD                           ALL TIMES    "7 27 6"                                   shellmound.head.obs
 3233090302101                            CONTINUOUS  HEAD                           ALL TIMES    "8 27 6"                                   shellmound.head.obs
 3233090302101                            CONTINUOUS  HEAD                           ALL TIMES    "9 27 6"                                   shellmound.head.obs
 3233090302101                            CONTINUOUS  HEAD                           ALL TIMES    "10 27 6"                                  shellmound.head.obs
 3233090302101                            CONTINUOUS  HEAD                           ALL TIMES    "11 27 6"                                  shellmound.head.obs
 3233090302101                            CONTINUOUS  HEAD                           ALL TIMES    "12 27 6"                                  shellmound.head.obs
 3233090302101                            CONTINUOUS  HEAD                           ALL TIMES    "13 27 6"                                  shellmound.head.obs
 3233090312201                            CONTINUOUS  HEAD                           ALL TIMES    "1 27 4"                                   shellmound.head.obs
 3233090312201                            CONTINUOUS  HEAD                           ALL TIMES    "2 27 4"                                   shellmound.head.obs
 3233090312201                            CONTINUOUS  HEAD                           ALL TIMES    "3 27 4"                                   shellmound.head.obs
 3233090312201                            CONTINUOUS  HEAD                           ALL TIMES    "4 27 4"                                   shellmound.head.obs
 3233090312201                            CONTINUOUS  HEAD                           ALL TIMES    "5 27 4"                                   shellmound.head.obs
 3233090312201                            CONTINUOUS  HEAD                           ALL TIMES    "6 27 4"                                   shellmound.head.obs
 3233090312201                            CONTINUOUS  HEAD                           ALL TIMES    "7 27 4"                                   shellmound.head.obs
 3233090312201                            CONTINUOUS  HEAD                           ALL TIMES    "8 27 4"                                   shellmound.head.obs
 3233090312201                            CONTINUOUS  HEAD                           ALL TIMES    "9 27 4"                                   shellmound.head.obs
 3233090312201                            CONTINUOUS  HEAD                           ALL TIMES    "10 27 4"                                  shellmound.head.obs
 3233090312201                            CONTINUOUS  HEAD                           ALL TIMES    "11 27 4"                                  shellmound.head.obs
 3233090312201                            CONTINUOUS  HEAD                           ALL TIMES    "12 27 4"                                  shellmound.head.obs
 3233090312201                            CONTINUOUS  HEAD                           ALL TIMES    "13 27 4"                                  shellmound.head.obs
 3234090313501                            CONTINUOUS  HEAD                           ALL TIMES    "1 27 4"                                   shellmound.head.obs
 3234090313501                            CONTINUOUS  HEAD                           ALL TIMES    "2 27 4"                                   shellmound.head.obs
 3234090313501                            CONTINUOUS  HEAD                           ALL TIMES    "3 27 4"                                   shellmound.head.obs
 3234090313501                            CONTINUOUS  HEAD                           ALL TIMES    "4 27 4"                                   shellmound.head.obs
 3234090313501                            CONTINUOUS  HEAD                           ALL TIMES    "5 27 4"                                   shellmound.head.obs
 3234090313501                            CONTINUOUS  HEAD                           ALL TIMES    "6 27 4"                                   shellmound.head.obs
 3234090313501                            CONTINUOUS  HEAD                           ALL TIMES    "7 27 4"                                   shellmound.head.obs
 3234090313501                            CONTINUOUS  HEAD                           ALL TIMES    "8 27 4"                                   shellmound.head.obs
 3234090313501                            CONTINUOUS  HEAD                           ALL TIMES    "9 27 4"                                   shellmound.head.obs
 3234090313501                            CONTINUOUS  HEAD                           ALL TIMES    "10 27 4"                                  shellmound.head.obs
 3234090313501                            CONTINUOUS  HEAD                           ALL TIMES    "11 27 4"                                  shellmound.head.obs
 3234090313501                            CONTINUOUS  HEAD                           ALL TIMES    "12 27 4"                                  shellmound.head.obs
 3234090313501                            CONTINUOUS  HEAD                           ALL TIMES    "13 27 4"                                  shellmound.head.obs
 3234090314601                            CONTINUOUS  HEAD                           ALL TIMES    "1 27 4"                                   shellmound.head.obs
 3234090314601                            CONTINUOUS  HEAD                           ALL TIMES    "2 27 4"                                   shellmound.head.obs
 3234090314601                            CONTINUOUS  HEAD                           ALL TIMES    "3 27 4"                                   shellmound.head.obs
 3234090314601                            CONTINUOUS  HEAD                           ALL TIMES    "4 27 4"                                   shellmound.head.obs
 3234090314601                            CONTINUOUS  HEAD                           ALL TIMES    "5 27 4"                                   shellmound.head.obs
 3234090314601                            CONTINUOUS  HEAD                           ALL TIMES    "6 27 4"                                   shellmound.head.obs
 3234090314601                            CONTINUOUS  HEAD                           ALL TIMES    "7 27 4"                                   shellmound.head.obs
 3234090314601                            CONTINUOUS  HEAD                           ALL TIMES    "8 27 4"                                   shellmound.head.obs
 3234090314601                            CONTINUOUS  HEAD                           ALL TIMES    "9 27 4"                                   shellmound.head.obs
 3234090314601                            CONTINUOUS  HEAD                           ALL TIMES    "10 27 4"                                  shellmound.head.obs
 3234090314601                            CONTINUOUS  HEAD                           ALL TIMES    "11 27 4"                                  shellmound.head.obs
 3234090314601                            CONTINUOUS  HEAD                           ALL TIMES    "12 27 4"                                  shellmound.head.obs
 3234090314601                            CONTINUOUS  HEAD                           ALL TIMES    "13 27 4"                                  shellmound.head.obs
 3235090281601                            CONTINUOUS  HEAD                           ALL TIMES    "1 27 9"                                   shellmound.head.obs
 3235090281601                            CONTINUOUS  HEAD                           ALL TIMES    "2 27 9"                                   shellmound.head.obs
 3235090281601                            CONTINUOUS  HEAD                           ALL TIMES    "3 27 9"                                   shellmound.head.obs
 3235090281601                            CONTINUOUS  HEAD                           ALL TIMES    "4 27 9"                                   shellmound.head.obs
 3235090281601                            CONTINUOUS  HEAD                           ALL TIMES    "5 27 9"                                   shellmound.head.obs
 3235090281601                            CONTINUOUS  HEAD                           ALL TIMES    "6 27 9"                                   shellmound.head.obs
 3235090281601                            CONTINUOUS  HEAD                           ALL TIMES    "7 27 9"                                   shellmound.head.obs
 3235090281601                            CONTINUOUS  HEAD                           ALL TIMES    "8 27 9"                                   shellmound.head.obs
 3235090281601                            CONTINUOUS  HEAD                           ALL TIMES    "9 27 9"                                   shellmound.head.obs
 3235090281601                            CONTINUOUS  HEAD                           ALL TIMES    "10 27 9"                                  shellmound.head.obs
 3235090281601                            CONTINUOUS  HEAD                           ALL TIMES    "11 27 9"                                  shellmound.head.obs
 3235090281601                            CONTINUOUS  HEAD                           ALL TIMES    "12 27 9"                                  shellmound.head.obs
 3235090281601                            CONTINUOUS  HEAD                           ALL TIMES    "13 27 9"                                  shellmound.head.obs
 3235090305701                            CONTINUOUS  HEAD                           ALL TIMES    "1 27 5"                                   shellmound.head.obs
 3235090305701                            CONTINUOUS  HEAD                           ALL TIMES    "2 27 5"                                   shellmound.head.obs
 3235090305701                            CONTINUOUS  HEAD                           ALL TIMES    "3 27 5"                                   shellmound.head.obs
 3235090305701                            CONTINUOUS  HEAD                           ALL TIMES    "4 27 5"                                   shellmound.head.obs
 3235090305701                            CONTINUOUS  HEAD                           ALL TIMES    "5 27 5"                                   shellmound.head.obs
 3235090305701                            CONTINUOUS  HEAD                           ALL TIMES    "6 27 5"                                   shellmound.head.obs
 3235090305701                            CONTINUOUS  HEAD                           ALL TIMES    "7 27 5"                                   shellmound.head.obs
 3235090305701                            CONTINUOUS  HEAD                           ALL TIMES    "8 27 5"                                   shellmound.head.obs
 3235090305701                            CONTINUOUS  HEAD                           ALL TIMES    "9 27 5"                                   shellmound.head.obs
 3235090305701                            CONTINUOUS  HEAD                           ALL TIMES    "10 27 5"                                  shellmound.head.obs
 3235090305701                            CONTINUOUS  HEAD                           ALL TIMES    "11 27 5"                                  shellmound.head.obs
 3235090305701                            CONTINUOUS  HEAD                           ALL TIMES    "12 27 5"                                  shellmound.head.obs
 3235090305701                            CONTINUOUS  HEAD                           ALL TIMES    "13 27 5"                                  shellmound.head.obs
 3236090213801                            CONTINUOUS  HEAD                           ALL TIMES    "4 26 19"                                  shellmound.head.obs
 3236090213801                            CONTINUOUS  HEAD                           ALL TIMES    "5 26 19"                                  shellmound.head.obs
 3236090213801                            CONTINUOUS  HEAD                           ALL TIMES    "6 26 19"                                  shellmound.head.obs
 3236090213801                            CONTINUOUS  HEAD                           ALL TIMES    "7 26 19"                                  shellmound.head.obs
 3236090213801                            CONTINUOUS  HEAD                           ALL TIMES    "8 26 19"                                  shellmound.head.obs
[...]
         11          9          1 -5.61556490E-05                    1_GWF-(4,26,30)  8.74411185E-02                    1_GWF-(6,24,31)
         12         10          1 -2.18885695E-05                    1_GWF-(4,26,30)  3.37342042E-02                    1_GWF-(6,24,31)
 --------------------------------------------------------------------------------------------------------------------------------------



end timestep


start timestep kper="19" kstp="2" mode="normal"


 INNER ITERATION SUMMARY
 --------------------------------------------------------------------------------------------------------------------------------------
      TOTAL      OUTER      INNER                                                            MAXIMUM
  ITERATION  ITERATION  ITERATION  MAXIMUM CHANGE      MAXIMUM CHANGE MODEL-(CELLID)        RESIDUAL    MAXIMUM RESIDUAL MODEL-(CELLID)
 --------------------------------------------------------------------------------------------------------------------------------------
          1          1          1     -0.19120168                     1_GWF-(1,27,3)       121.37057                     1_GWF-(10,8,3)
          2          1          2 -2.16040315E-02                    1_GWF-(12,17,7)       15.993352                    1_GWF-(11,18,8)
          3          1          3 -4.01432394E-03                   1_GWF-(11,27,15)       3.3138299                   1_GWF-(11,26,14)
          4          2          1 -7.93455054E-03                    1_GWF-(4,21,30)       13.761552                    1_GWF-(6,20,32)
          5          3          1 -4.86217827E-03                    1_GWF-(4,21,33)       10.389258                    1_GWF-(6,20,32)
          6          4          1 -3.00774279E-03                    1_GWF-(4,22,33)       6.1923643                    1_GWF-(6,20,32)
          7          5          1 -1.74084364E-03                    1_GWF-(4,24,31)       3.3629118                    1_GWF-(6,24,31)
          8          6          1 -9.47759432E-04                    1_GWF-(4,26,30)       1.8403026                    1_GWF-(6,24,31)
          9          7          1 -4.90050088E-04                    1_GWF-(4,26,30)      0.94556832                    1_GWF-(6,24,31)
         10          8          1 -2.41183920E-04                    1_GWF-(4,26,30)      0.46289490                    1_GWF-(6,24,31)
         11          9          1 -1.13862184E-04                    1_GWF-(4,26,30)      0.21690167                    1_GWF-(6,24,31)
         12         10          1 -5.16693933E-05                    1_GWF-(4,26,30)  9.74017242E-02                    1_GWF-(6,24,31)
         13         11          1 -2.25517555E-05                    1_GWF-(4,26,30)  4.20899145E-02                    1_GWF-(6,24,31)
 --------------------------------------------------------------------------------------------------------------------------------------



end timestep


start timestep kper="19" kstp="3" mode="normal"


 INNER ITERATION SUMMARY
 --------------------------------------------------------------------------------------------------------------------------------------
      TOTAL      OUTER      INNER                                                            MAXIMUM
  ITERATION  ITERATION  ITERATION  MAXIMUM CHANGE      MAXIMUM CHANGE MODEL-(CELLID)        RESIDUAL    MAXIMUM RESIDUAL MODEL-(CELLID)
 --------------------------------------------------------------------------------------------------------------------------------------
          1          1          1     -0.21025025                     1_GWF-(1,27,3)       122.00139                   1_GWF-(11,26,14)
          2          1          2 -2.87232624E-02                    1_GWF-(12,17,7)       38.148173                    1_GWF-(6,26,30)
          3          1          3 -4.50759423E-03                   1_GWF-(13,15,20)       4.9009156                    1_GWF-(11,19,8)
          4          2          1 -8.12519165E-03                    1_GWF-(4,21,30)       14.771271                    1_GWF-(6,20,32)
          5          3          1 -4.94315353E-03                    1_GWF-(4,21,33)       12.386663                    1_GWF-(6,20,32)
          6          4          1 -3.36962926E-03                    1_GWF-(4,22,33)       8.2583998                    1_GWF-(6,20,32)
          7          5          1 -2.13959144E-03                    1_GWF-(4,24,31)       4.9266977                    1_GWF-(6,20,32)
          8          6          1 -1.31421973E-03                    1_GWF-(4,26,30)       2.7701832                    1_GWF-(6,20,32)
          9          7          1 -7.64507889E-04                    1_GWF-(4,26,30)       1.5073254                    1_GWF-(6,24,31)
         10          8          1 -4.24983287E-04                    1_GWF-(4,26,30)      0.82706099                    1_GWF-(6,24,31)
         11          9          1 -2.28034513E-04                    1_GWF-(4,26,30)      0.44078240                    1_GWF-(6,24,31)
         12         10          1 -1.18420218E-04                    1_GWF-(4,26,30)      0.22732107                    1_GWF-(6,24,31)
         13         11          1 -5.95893034E-05                    1_GWF-(4,26,30)      0.11368353                    1_GWF-(6,24,31)
         14         12          1 -2.91085920E-05                    1_GWF-(4,26,30)  5.52330314E-02                    1_GWF-(6,24,31)
         15         13          1 -1.38543036E-05                    1_GWF-(4,26,30)  2.61549700E-02                    1_GWF-(6,24,31)
 --------------------------------------------------------------------------------------------------------------------------------------



end timestep


start timestep kper="19" kstp="4" mode="normal"


 INNER ITERATION SUMMARY
 --------------------------------------------------------------------------------------------------------------------------------------
      TOTAL      OUTER      INNER                                                            MAXIMUM
  ITERATION  ITERATION  ITERATION  MAXIMUM CHANGE      MAXIMUM CHANGE MODEL-(CELLID)        RESIDUAL    MAXIMUM RESIDUAL MODEL-(CELLID)
 --------------------------------------------------------------------------------------------------------------------------------------
          1          1          1     -0.22811801                     1_GWF-(1,27,3)       152.81273                   1_GWF-(11,26,14)
          2          1          2 -5.40777223E-02                   1_GWF-(11,27,14)       67.955749                    1_GWF-(6,26,30)
          3          1          3 -1.67092733E-02                   1_GWF-(13,15,20)      -8.8643278                    1_GWF-(6,26,30)
          4          1          4 -2.12853071E-03                    1_GWF-(12,22,7)       2.9799633                    1_GWF-(11,21,5)
          5          2          1 -8.68513061E-03                    1_GWF-(4,21,30)       13.993119                    1_GWF-(6,20,32)
          6          3          1 -6.03984554E-03                    1_GWF-(4,21,30)       13.371233                    1_GWF-(6,20,32)
          7          4          1 -3.88968634E-03                    1_GWF-(4,19,31)       10.220977                    1_GWF-(6,20,32)
          8          5          1 -2.56158333E-03                    1_GWF-(4,22,33)       6.9919845                    1_GWF-(6,20,32)
          9          6          1 -1.80179538E-03                    1_GWF-(4,26,30)       4.4870838                    1_GWF-(6,20,32)
         10          7          1 -1.20692263E-03                    1_GWF-(4,26,30)       2.7718236                    1_GWF-(6,20,32)
         11          8          1 -7.69924636E-04                    1_GWF-(4,26,30)       1.6640886                    1_GWF-(6,20,32)
         12          9          1 -4.73598569E-04                    1_GWF-(4,26,30)      0.97117411                    1_GWF-(6,20,32)
         13         10          1 -2.82378310E-04                    1_GWF-(4,26,30)      0.55224245                    1_GWF-(5,23,32)
         14         11          1 -1.63504196E-04                    1_GWF-(4,26,30)      0.31007643                    1_GWF-(5,23,32)
         15         12          1 -9.20918769E-05                    1_GWF-(4,26,30)      0.16919448                    1_GWF-(5,23,32)
         16         13          1 -5.06432387E-05                    1_GWF-(4,26,30)  9.01983688E-02                    1_GWF-(5,23,32)
         17         14          1 -2.73524992E-05                    1_GWF-(4,26,30)  4.81293741E-02                    1_GWF-(6,24,31)
         18         15          1 -1.46109022E-05                    1_GWF-(4,26,30)  2.57441992E-02                    1_GWF-(6,24,31)
 --------------------------------------------------------------------------------------------------------------------------------------



end timestep


start timestep kper="19" kstp="5" mode="normal"


 INNER ITERATION SUMMARY
 --------------------------------------------------------------------------------------------------------------------------------------
      TOTAL      OUTER      INNER                                                            MAXIMUM
  ITERATION  ITERATION  ITERATION  MAXIMUM CHANGE      MAXIMUM CHANGE MODEL-(CELLID)        RESIDUAL    MAXIMUM RESIDUAL MODEL-(CELLID)
 --------------------------------------------------------------------------------------------------------------------------------------
          1          1          1     -0.23857180                     1_GWF-(1,27,3)       188.03993                   1_GWF-(11,26,14)
          2          1          2     -0.10559564                   1_GWF-(11,27,14)      -111.38779                   1_GWF-(11,26,15)
          3          1          3 -5.26261848E-02                   1_GWF-(13,25,26)      -39.110155                    1_GWF-(6,26,30)
          4          1          4  3.20104720E-02                   1_GWF-(13,26,26)       44.086087                    1_GWF-(6,26,30)
          5          1          5 -1.73184212E-02                   1_GWF-(13,26,26)       3.6015900                    1_GWF-(11,21,6)
          6          1          6 -1.68658580E-03                    1_GWF-(11,21,6)      0.52707530                    1_GWF-(11,21,5)
          7          2          1 -2.70541749E-02                    1_GWF-(4,21,30)       17.332632                    1_GWF-(6,26,30)
          8          2          2 -1.63063752E-03                   1_GWF-(11,21,32)       2.0031818                    1_GWF-(6,17,32)
          9          3          1     -0.11545927                    1_GWF-(4,21,30)       23.050173                    1_GWF-(6,20,32)
         10          3          2 -3.40614709E-03                   1_GWF-(11,21,32)       2.2503751                    1_GWF-(6,17,32)
         11          4          1 -7.31687733E-02                    1_GWF-(4,22,30)       15.336484                    1_GWF-(6,26,30)
         12          4          2 -2.18234465E-03                   1_GWF-(11,21,32)       1.7340363                    1_GWF-(6,17,32)
         13          5          1 -4.86072014E-02                    1_GWF-(4,22,30)       11.581718                    1_GWF-(6,26,30)
         14          5          2 -1.47934532E-03                   1_GWF-(11,21,32)      -3.0143059                    1_GWF-(6,25,30)
         15          6          1 -3.01499561E-02                    1_GWF-(4,22,30)       7.7316593                    1_GWF-(6,26,30)
         16          6          2 -6.98422998E-04                   1_GWF-(11,21,32)      -1.3335227                    1_GWF-(6,26,30)
         17          7          1 -1.77093693E-02                    1_GWF-(4,22,30)       4.4827306                    1_GWF-(6,26,30)
         18          7          2 -3.57142109E-04                   1_GWF-(11,21,32)     -0.56959347                    1_GWF-(6,26,30)
         19          8          1 -3.61832483E-03                    1_GWF-(4,22,29)       2.2705403                    1_GWF-(6,26,30)
         20          9          1 -3.38418416E-03                    1_GWF-(4,22,29)       1.0617327                    1_GWF-(6,26,30)
         21         10          1 -9.23052712E-03                    1_GWF-(4,22,29)      0.59909210                    1_GWF-(6,26,30)
         22         11          1 -2.99758444E-03                    1_GWF-(4,22,29)      0.39464418                    1_GWF-(6,26,30)
         23         12          1 -1.13721036E-03                    1_GWF-(4,22,29)      0.23782409                    1_GWF-(6,26,30)
         24         13          1 -4.59152893E-04                    1_GWF-(4,22,29)      0.13751781                    1_GWF-(6,26,30)
         25         14          1 -1.92412928E-04                    1_GWF-(4,22,29)  7.85894160E-02                    1_GWF-(6,26,30)
 --------------------------------------------------------------------------------------------------------------------------------------


 UBDSV1 SAVING           STO-SS ON UNIT   1111 AT TIME STEP      5, STRESS PERIOD     19
 UBDSV1 SAVING           STO-SY ON UNIT   1111 AT TIME STEP      5, STRESS PERIOD     19
 UBDSV1 SAVING     FLOW-JA-FACE ON UNIT   1111 AT TIME STEP      5, STRESS PERIOD     19
 UBDSV06 SAVING              WEL IN MODEL SHELLMOUND       PACKAGE SHELLMOUND      CONNECTED TO MODEL SHELLMOUND       PACKAGE WEL_0            ON UNIT   1111 AT TIME STEP      5, STRESS PERIOD     19
 UBDSV06 SAVING              RCH IN MODEL SHELLMOUND       PACKAGE SHELLMOUND      CONNECTED TO MODEL SHELLMOUND       PACKAGE RCHA             ON UNIT   1111 AT TIME STEP      5, STRESS PERIOD     19
 UBDSV06 SAVING              SFR IN MODEL SHELLMOUND       PACKAGE SHELLMOUND      CONNECTED TO MODEL SHELLMOUND       PACKAGE SFR_0            ON UNIT   1111 AT TIME STEP      5, STRESS PERIOD     19
 UBDSV06 SAVING     FLOW-JA-FACE IN MODEL SHELLMOUND       PACKAGE SFR_0           CONNECTED TO MODEL SHELLMOUND       PACKAGE SFR_0            ON UNIT   1042 AT TIME STEP      5, STRESS PERIOD     19
 UBDSV06 SAVING              GWF IN MODEL SHELLMOUND       PACKAGE SFR_0           CONNECTED TO MODEL SHELLMOUND       PACKAGE SHELLMOUND       ON UNIT   1042 AT TIME STEP      5, STRESS PERIOD     19
 UBDSV06 SAVING         RAINFALL IN MODEL SHELLMOUND       PACKAGE SFR_0           CONNECTED TO MODEL SHELLMOUND       PACKAGE SFR_0            ON UNIT   1042 AT TIME STEP      5, STRESS PERIOD     19
 UBDSV06 SAVING      EVAPORATION IN MODEL SHELLMOUND       PACKAGE SFR_0           CONNECTED TO MODEL SHELLMOUND       PACKAGE SFR_0            ON UNIT   1042 AT TIME STEP      5, STRESS PERIOD     19
 UBDSV06 SAVING           RUNOFF IN MODEL SHELLMOUND       PACKAGE SFR_0           CONNECTED TO MODEL SHELLMOUND       PACKAGE SFR_0            ON UNIT   1042 AT TIME STEP      5, STRESS PERIOD     19
 UBDSV06 SAVING       EXT-INFLOW IN MODEL SHELLMOUND       PACKAGE SFR_0           CONNECTED TO MODEL SHELLMOUND       PACKAGE SFR_0            ON UNIT   1042 AT TIME STEP      5, STRESS PERIOD     19
 UBDSV06 SAVING      EXT-OUTFLOW IN MODEL SHELLMOUND       PACKAGE SFR_0           CONNECTED TO MODEL SHELLMOUND       PACKAGE SFR_0            ON UNIT   1042 AT TIME STEP      5, STRESS PERIOD     19
 UBDSV06 SAVING          STORAGE IN MODEL SHELLMOUND       PACKAGE SFR_0           CONNECTED TO MODEL SHELLMOUND       PACKAGE SFR_0            ON UNIT   1042 AT TIME STEP      5, STRESS PERIOD     19

 HEAD WILL BE SAVED ON UNIT 1112 AT END OF TIME STEP    5, STRESS PERIOD   19


  SFR_0 BUDGET FOR ENTIRE MODEL AT END OF TIME STEP    5, STRESS PERIOD  19
  ------------------------------------------------------------------------------

     CUMULATIVE SFR_0      L**3       RATES FOR THIS TIME STEP      L**3/T
     ------------------                 ------------------------

           IN:                                      IN:
           ---                                      ---
                 GWF =   402425319.4722                   GWF =       56880.1224
            RAINFALL =           0.0000              RAINFALL =           0.0000
         EVAPORATION =           0.0000           EVAPORATION =           0.0000
              RUNOFF =           0.0000                RUNOFF =           0.0000
          EXT-INFLOW =           0.0000            EXT-INFLOW =           0.0000
         EXT-OUTFLOW =           0.0000           EXT-OUTFLOW =           0.0000
             STORAGE =           0.0000               STORAGE =           0.0000

            TOTAL IN =   402425319.4722              TOTAL IN =       56880.1224

          OUT:                                     OUT:
          ----                                     ----
                 GWF =   195141995.4637                   GWF =       40297.1164
            RAINFALL =           0.0000              RAINFALL =           0.0000
         EVAPORATION =           0.0000           EVAPORATION =           0.0000
              RUNOFF =           0.0000                RUNOFF =           0.0000
          EXT-INFLOW =           0.0000            EXT-INFLOW =           0.0000
         EXT-OUTFLOW =   207283324.0085           EXT-OUTFLOW =       16583.0059
             STORAGE =           0.0000               STORAGE =           0.0000

           TOTAL OUT =   402425319.4722             TOTAL OUT =       56880.1224

            IN - OUT =           0.0000              IN - OUT =           0.0000

 PERCENT DISCREPANCY =           0.00     PERCENT DISCREPANCY =           0.00



  VOLUME BUDGET FOR ENTIRE MODEL AT END OF TIME STEP    5, STRESS PERIOD  19
  ---------------------------------------------------------------------------------------------------

     CUMULATIVE VOLUME      L**3       RATES FOR THIS TIME STEP      L**3/T          PACKAGE NAME
     ------------------                 ------------------------                     ----------------

           IN:                                      IN:
           ---                                      ---
              STO-SS =     3469321.0852                STO-SS =         815.7288     STORAGE
              STO-SY =  1222749985.5173                STO-SY =      290220.8210     STORAGE
                 WEL =           0.0000                   WEL =           0.0000     WEL_0
                 RCH =  2248352747.1000                   RCH =      254347.1956     RCHA
                 SFR =   195165097.9812                   SFR =       40305.1420     SFR_0

            TOTAL IN =  3669737151.6836              TOTAL IN =      585688.8874

          OUT:                                     OUT:
          ----                                     ----
              STO-SS =     1650228.5240                STO-SS =           0.0000     STORAGE
              STO-SY =   590132522.7186                STO-SY =           0.0000     STORAGE
                 WEL =  2675688426.6535                   WEL =      528817.1966     WEL_0
                 RCH =           0.0000                   RCH =           0.0000     RCHA
                 SFR =   402409131.5676                   SFR =       56873.2633     SFR_0

           TOTAL OUT =  3669880309.4638             TOTAL OUT =      585690.4598

            IN - OUT =     -143157.7802              IN - OUT =          -1.5724

 PERCENT DISCREPANCY =          -0.00     PERCENT DISCREPANCY =          -0.00




         TIME SUMMARY AT END OF TIME STEP    5 IN STRESS PERIOD   19
                    SECONDS     MINUTES      HOURS       DAYS        YEARS
                    -----------------------------------------------------------
   TIME STEP LENGTH 6.06970E+06 1.01162E+05  1686.0      70.251     0.19234
 STRESS PERIOD TIME 1.58112E+07 2.63520E+05  4392.0      183.00     0.50103
         TOTAL TIME 5.52355E+08 9.20592E+06 1.53432E+05  6393.0      17.503


end timestep
