                                   MODFLOW 6
                U.S. GEOLOGICAL SURVEY MODULAR HYDROLOGIC MODEL
                          GROUNDWATER FLOW MODEL (GWF)
                            VERSION 6.1.0 12/12/2019

   MODFLOW 6 compiled Dec 13 2019 12:29:49 with IFORT compiler (ver. 19.0.5)

This software has been approved for release by the U.S. Geological
Survey (USGS). Although the software has been subjected to rigorous
review, the USGS reserves the right to update the software as needed
pursuant to further analysis and review. No warranty, expressed or
implied, is made by the USGS or the U.S. Government as to the
functionality of the software and related material nor shall the
fact of release constitute any such warranty. Furthermore, the
software is released on condition that neither the USGS nor the U.S.
Government shall be held liable for any damages resulting from its
authorized or unauthorized use. Also refer to the USGS Water
Resources Software User Rights Notice for complete use, copyright,
and distribution information.


MODFLOW was compiled using uniform precision.
Precision of REAL variables: 15


 OPENED shellmound.dis
 FILE TYPE:DIS6                   UNIT 1005   STATUS:OLD
 FORMAT:FORMATTED              ACCESS:SEQUENTIAL
 ACTION:READ


 OPENED shellmound.ic
 FILE TYPE:IC6                    UNIT 1006   STATUS:OLD
 FORMAT:FORMATTED              ACCESS:SEQUENTIAL
 ACTION:READ


 OPENED shellmound.npf
 FILE TYPE:NPF6                   UNIT 1007   STATUS:OLD
 FORMAT:FORMATTED              ACCESS:SEQUENTIAL
 ACTION:READ


 OPENED shellmound.sto
 FILE TYPE:STO6                   UNIT 1008   STATUS:OLD
 FORMAT:FORMATTED              ACCESS:SEQUENTIAL
 ACTION:READ


 OPENED shellmound.rcha
 FILE TYPE:RCH6                   UNIT 1009   STATUS:OLD
 FORMAT:FORMATTED              ACCESS:SEQUENTIAL
 ACTION:READ


 OPENED shellmound.oc
 FILE TYPE:OC6                    UNIT 1010   STATUS:OLD
 FORMAT:FORMATTED              ACCESS:SEQUENTIAL
 ACTION:READ


 OPENED shellmound.sfr
 FILE TYPE:SFR6                   UNIT 1011   STATUS:OLD
 FORMAT:FORMATTED              ACCESS:SEQUENTIAL
 ACTION:READ


 OPENED shellmound.wel
 FILE TYPE:WEL6                   UNIT 1012   STATUS:OLD
 FORMAT:FORMATTED              ACCESS:SEQUENTIAL
 ACTION:READ


 OPENED shellmound.obs
 FILE TYPE:OBS6                   UNIT 1013   STATUS:OLD
 FORMAT:FORMATTED              ACCESS:SEQUENTIAL
 ACTION:READ

 NAMEFILE OPTIONS:
    STRESS PACKAGE INPUT WILL BE PRINTED FOR ALL MODEL STRESS PACKAGES
    FLOWS WILL BE SAVED TO BUDGET FILE SPECIFIED IN OUTPUT CONTROL
    NEWTON-RAPHSON method enabled for the model.

 DIS -- STRUCTURED GRID DISCRETIZATION PACKAGE, VERSION 2 : 3/27/2014 - INPUT READ FROM UNIT 1005


 PROCESSING DISCRETIZATION OPTIONS
    MODEL LENGTH UNIT IS METERS
    XORIGIN SPECIFIED AS     500955.000000000
    YORIGIN SPECIFIED AS     1175285.00000000
    ANGROT SPECIFIED AS     0.00000000000000
 END OF DISCRETIZATION OPTIONS
 PROCESSING DISCRETIZATION DIMENSIONS
    NLAY =      13
    NROW =      30
    NCOL =      35
 END OF DISCRETIZATION DIMENSIONS
 PROCESSING GRIDDATA

                     DELR =   1000.000

                     DELC =   1000.000

 OPENED ./external/top.dat
 FILE TYPE:OPEN/CLOSE   UNIT 1015   STATUS:OLD
 FORMAT:FORMATTED              ACCESS:SEQUENTIAL
 ACTION:READ


 OPENED ./external/botm0.dat
 FILE TYPE:OPEN/CLOSE   UNIT 1016   STATUS:OLD
 FORMAT:FORMATTED              ACCESS:SEQUENTIAL
 ACTION:READ


 OPENED ./external/botm1.dat
 FILE TYPE:OPEN/CLOSE   UNIT 1017   STATUS:OLD
 FORMAT:FORMATTED              ACCESS:SEQUENTIAL
 ACTION:READ


 OPENED ./external/botm2.dat
 FILE TYPE:OPEN/CLOSE   UNIT 1018   STATUS:OLD
 FORMAT:FORMATTED              ACCESS:SEQUENTIAL
 ACTION:READ


 OPENED ./external/botm3.dat
 FILE TYPE:OPEN/CLOSE   UNIT 1019   STATUS:OLD
 FORMAT:FORMATTED              ACCESS:SEQUENTIAL
 ACTION:READ


 OPENED ./external/botm4.dat
 FILE TYPE:OPEN/CLOSE   UNIT 1020   STATUS:OLD
 FORMAT:FORMATTED              ACCESS:SEQUENTIAL
 ACTION:READ


 OPENED ./external/botm5.dat
 FILE TYPE:OPEN/CLOSE   UNIT 1021   STATUS:OLD
 FORMAT:FORMATTED              ACCESS:SEQUENTIAL
 ACTION:READ


 OPENED ./external/botm6.dat
 FILE TYPE:OPEN/CLOSE   UNIT 1022   STATUS:OLD
 FORMAT:FORMATTED              ACCESS:SEQUENTIAL
 ACTION:READ


 OPENED ./external/botm7.dat
 FILE TYPE:OPEN/CLOSE   UNIT 1023   STATUS:OLD
 FORMAT:FORMATTED              ACCESS:SEQUENTIAL
 ACTION:READ


 OPENED ./external/botm8.dat
 FILE TYPE:OPEN/CLOSE   UNIT 1024   STATUS:OLD
 FORMAT:FORMATTED              ACCESS:SEQUENTIAL
 ACTION:READ


 OPENED ./external/botm9.dat
 FILE TYPE:OPEN/CLOSE   UNIT 1025   STATUS:OLD
 FORMAT:FORMATTED              ACCESS:SEQUENTIAL
 ACTION:READ


 OPENED ./external/botm10.dat
 FILE TYPE:OPEN/CLOSE   UNIT 1026   STATUS:OLD
 FORMAT:FORMATTED              ACCESS:SEQUENTIAL
 ACTION:READ


 OPENED ./external/botm11.dat
 FILE TYPE:OPEN/CLOSE   UNIT 1027   STATUS:OLD
 FORMAT:FORMATTED              ACCESS:SEQUENTIAL
 ACTION:READ


 OPENED ./external/botm12.dat
 FILE TYPE:OPEN/CLOSE   UNIT 1028   STATUS:OLD
 FORMAT:FORMATTED              ACCESS:SEQUENTIAL
 ACTION:READ


 OPENED ./external/idomain0.dat
 FILE TYPE:OPEN/CLOSE   UNIT 1029   STATUS:OLD
 FORMAT:FORMATTED              ACCESS:SEQUENTIAL
 ACTION:READ


 OPENED ./external/idomain1.dat
 FILE TYPE:OPEN/CLOSE   UNIT 1030   STATUS:OLD
 FORMAT:FORMATTED              ACCESS:SEQUENTIAL
 ACTION:READ


 OPENED ./external/idomain2.dat
 FILE TYPE:OPEN/CLOSE   UNIT 1031   STATUS:OLD
 FORMAT:FORMATTED              ACCESS:SEQUENTIAL
 ACTION:READ


 OPENED ./external/idomain3.dat
 FILE TYPE:OPEN/CLOSE   UNIT 1032   STATUS:OLD
 FORMAT:FORMATTED              ACCESS:SEQUENTIAL
 ACTION:READ


 OPENED ./external/idomain4.dat
 FILE TYPE:OPEN/CLOSE   UNIT 1033   STATUS:OLD
 FORMAT:FORMATTED              ACCESS:SEQUENTIAL
 ACTION:READ


 OPENED ./external/idomain5.dat
 FILE TYPE:OPEN/CLOSE   UNIT 1034   STATUS:OLD
 FORMAT:FORMATTED              ACCESS:SEQUENTIAL
 ACTION:READ


 OPENED ./external/idomain6.dat
 FILE TYPE:OPEN/CLOSE   UNIT 1035   STATUS:OLD
 FORMAT:FORMATTED              ACCESS:SEQUENTIAL
 ACTION:READ


 OPENED ./external/idomain7.dat
 FILE TYPE:OPEN/CLOSE   UNIT 1036   STATUS:OLD
 FORMAT:FORMATTED              ACCESS:SEQUENTIAL
 ACTION:READ


 OPENED ./external/idomain8.dat
 FILE TYPE:OPEN/CLOSE   UNIT 1037   STATUS:OLD
 FORMAT:FORMATTED              ACCESS:SEQUENTIAL
 ACTION:READ


 OPENED ./external/idomain9.dat
 FILE TYPE:OPEN/CLOSE   UNIT 1038   STATUS:OLD
 FORMAT:FORMATTED              ACCESS:SEQUENTIAL
 ACTION:READ


 OPENED ./external/idomain10.dat
 FILE TYPE:OPEN/CLOSE   UNIT 1039   STATUS:OLD
 FORMAT:FORMATTED              ACCESS:SEQUENTIAL
 ACTION:READ


 OPENED ./external/idomain11.dat
 FILE TYPE:OPEN/CLOSE   UNIT 1040   STATUS:OLD
 FORMAT:FORMATTED              ACCESS:SEQUENTIAL
 ACTION:READ


 OPENED ./external/idomain12.dat
 FILE TYPE:OPEN/CLOSE   UNIT 1041   STATUS:OLD
 FORMAT:FORMATTED              ACCESS:SEQUENTIAL
 ACTION:READ

 END PROCESSING GRIDDATA

 THE SPECIFIED IDOMAIN RESULTS IN A REDUCED NUMBER OF CELLS.
 NUMBER OF USER NODES: 13650
 NUMBER OF NODES IN SOLUTION: 9096



 NPF -- NODE PROPERTY FLOW PACKAGE, VERSION 1, 3/30/2015 INPUT READ FROM UNIT 1007


 PROCESSING NPF OPTIONS
    CELL-BY-CELL FLOW INFORMATION WILL BE SAVED TO BINARY FILE WHENEVER ICBCFL IS NOT ZERO.
 END OF NPF OPTIONS

 WEL   -- WEL PACKAGE, VERSION 8, 2/22/2014 INPUT READ FROM UNIT 1012

 PROCESSING WEL OPTIONS
    WEL BOUNDARIES HAVE NAMES IN LAST COLUMN.
    LISTS OF WEL CELLS WILL BE PRINTED.
    WEL FLOWS WILL BE PRINTED TO LISTING FILE.
    FLOWS WILL BE SAVED TO BUDGET FILE SPECIFIED IN OUTPUT CONTROL
 END OF WEL OPTIONS

 PROCESSING WEL DIMENSIONS
    MAXBOUND =     340
 END OF WEL DIMENSIONS

 RCH   -- RCH PACKAGE, VERSION 8, 2/22/2014 INPUT READ FROM UNIT 1009

 PROCESSING RCH OPTIONS
    RECHARGE INPUT WILL BE READ AS ARRAY(S).
    LISTS OF RCH CELLS WILL BE PRINTED.
    FLOWS WILL BE SAVED TO BUDGET FILE SPECIFIED IN OUTPUT CONTROL
 END OF RCH OPTIONS

 SFR   -- SFR PACKAGE, VERSION 8, 2/22/2014 INPUT READ FROM UNIT 1011
 # MODFLOW-6 SFR input; created by SFRmaker v. 0.4.0.post1+g74510a9

 PROCESSING SFR OPTIONS
    FLOWS WILL BE SAVED TO BUDGET FILE SPECIFIED IN OUTPUT CONTROL

 OPENED shellmound.sfr.cbc
 FILE TYPE:DATA(BINARY)   UNIT 1042   STATUS:REPLACE
 FORMAT:UNFORMATTED            ACCESS:STREAM
 ACTION:READWRITE

    SFR  BUDGET  WILL BE SAVED TO FILE: shellmound.sfr.cbc
    OPENED ON UNIT:    1042

 OPENED shellmound.sfr.stage.bin
 FILE TYPE:DATA(BINARY)   UNIT 1043   STATUS:REPLACE
 FORMAT:UNFORMATTED            ACCESS:STREAM
 ACTION:READWRITE

    SFR  STAGE  WILL BE SAVED TO FILE: shellmound.sfr.stage.bin
    OPENED ON UNIT:    1043
    UNIT CONVERSION VALUE (   86400.00    ) SPECIFIED.
 END OF SFR OPTIONS

 PROCESSING SFR DIMENSIONS
    NREACHES = 362
 END OF SFR DIMENSIONS

 IC -- INITIAL CONDITIONS PACKAGE, VERSION 8, 3/28/2015 INPUT READ FROM UNIT 1006
 PROCESSING GRIDDATA

 OPENED ./external/strt0.dat
 FILE TYPE:OPEN/CLOSE   UNIT 1044   STATUS:OLD
 FORMAT:FORMATTED              ACCESS:SEQUENTIAL
 ACTION:READ


 OPENED ./external/strt1.dat
 FILE TYPE:OPEN/CLOSE   UNIT 1045   STATUS:OLD
 FORMAT:FORMATTED              ACCESS:SEQUENTIAL
 ACTION:READ


 OPENED ./external/strt2.dat
 FILE TYPE:OPEN/CLOSE   UNIT 1046   STATUS:OLD
 FORMAT:FORMATTED              ACCESS:SEQUENTIAL
 ACTION:READ


 OPENED ./external/strt3.dat
 FILE TYPE:OPEN/CLOSE   UNIT 1047   STATUS:OLD
 FORMAT:FORMATTED              ACCESS:SEQUENTIAL
 ACTION:READ


 OPENED ./external/strt4.dat
 FILE TYPE:OPEN/CLOSE   UNIT 1048   STATUS:OLD
 FORMAT:FORMATTED              ACCESS:SEQUENTIAL
 ACTION:READ


 OPENED ./external/strt5.dat
 FILE TYPE:OPEN/CLOSE   UNIT 1049   STATUS:OLD
 FORMAT:FORMATTED              ACCESS:SEQUENTIAL
 ACTION:READ


 OPENED ./external/strt6.dat
 FILE TYPE:OPEN/CLOSE   UNIT 1050   STATUS:OLD
 FORMAT:FORMATTED              ACCESS:SEQUENTIAL
 ACTION:READ


 OPENED ./external/strt7.dat
 FILE TYPE:OPEN/CLOSE   UNIT 1051   STATUS:OLD
 FORMAT:FORMATTED              ACCESS:SEQUENTIAL
 ACTION:READ


 OPENED ./external/strt8.dat
 FILE TYPE:OPEN/CLOSE   UNIT 1052   STATUS:OLD
 FORMAT:FORMATTED              ACCESS:SEQUENTIAL
 ACTION:READ


 OPENED ./external/strt9.dat
 FILE TYPE:OPEN/CLOSE   UNIT 1053   STATUS:OLD
 FORMAT:FORMATTED              ACCESS:SEQUENTIAL
 ACTION:READ


 OPENED ./external/strt10.dat
 FILE TYPE:OPEN/CLOSE   UNIT 1054   STATUS:OLD
 FORMAT:FORMATTED              ACCESS:SEQUENTIAL
 ACTION:READ


 OPENED ./external/strt11.dat
 FILE TYPE:OPEN/CLOSE   UNIT 1055   STATUS:OLD
 FORMAT:FORMATTED              ACCESS:SEQUENTIAL
 ACTION:READ


 OPENED ./external/strt12.dat
 FILE TYPE:OPEN/CLOSE   UNIT 1056   STATUS:OLD
 FORMAT:FORMATTED              ACCESS:SEQUENTIAL
 ACTION:READ

 END PROCESSING GRIDDATA
 PROCESSING GRIDDATA

                ICELLTYPE = 1

 OPENED ./external/k0.dat
 FILE TYPE:OPEN/CLOSE   UNIT 1057   STATUS:OLD
 FORMAT:FORMATTED              ACCESS:SEQUENTIAL
 ACTION:READ


 OPENED ./external/k1.dat
 FILE TYPE:OPEN/CLOSE   UNIT 1058   STATUS:OLD
 FORMAT:FORMATTED              ACCESS:SEQUENTIAL
 ACTION:READ


 OPENED ./external/k2.dat
 FILE TYPE:OPEN/CLOSE   UNIT 1059   STATUS:OLD
 FORMAT:FORMATTED              ACCESS:SEQUENTIAL
 ACTION:READ


 OPENED ./external/k3.dat
 FILE TYPE:OPEN/CLOSE   UNIT 1060   STATUS:OLD
 FORMAT:FORMATTED              ACCESS:SEQUENTIAL
 ACTION:READ


 OPENED ./external/k4.dat
 FILE TYPE:OPEN/CLOSE   UNIT 1061   STATUS:OLD
 FORMAT:FORMATTED              ACCESS:SEQUENTIAL
 ACTION:READ


 OPENED ./external/k5.dat
 FILE TYPE:OPEN/CLOSE   UNIT 1062   STATUS:OLD
 FORMAT:FORMATTED              ACCESS:SEQUENTIAL
 ACTION:READ


 OPENED ./external/k6.dat
 FILE TYPE:OPEN/CLOSE   UNIT 1063   STATUS:OLD
 FORMAT:FORMATTED              ACCESS:SEQUENTIAL
 ACTION:READ


 OPENED ./external/k7.dat
 FILE TYPE:OPEN/CLOSE   UNIT 1064   STATUS:OLD
 FORMAT:FORMATTED              ACCESS:SEQUENTIAL
 ACTION:READ


 OPENED ./external/k8.dat
 FILE TYPE:OPEN/CLOSE   UNIT 1065   STATUS:OLD
 FORMAT:FORMATTED              ACCESS:SEQUENTIAL
 ACTION:READ


 OPENED ./external/k9.dat
 FILE TYPE:OPEN/CLOSE   UNIT 1066   STATUS:OLD
 FORMAT:FORMATTED              ACCESS:SEQUENTIAL
 ACTION:READ


 OPENED ./external/k10.dat
 FILE TYPE:OPEN/CLOSE   UNIT 1067   STATUS:OLD
 FORMAT:FORMATTED              ACCESS:SEQUENTIAL
 ACTION:READ


 OPENED ./external/k11.dat
 FILE TYPE:OPEN/CLOSE   UNIT 1068   STATUS:OLD
 FORMAT:FORMATTED              ACCESS:SEQUENTIAL
 ACTION:READ


 OPENED ./external/k12.dat
 FILE TYPE:OPEN/CLOSE   UNIT 1069   STATUS:OLD
 FORMAT:FORMATTED              ACCESS:SEQUENTIAL
 ACTION:READ


 OPENED ./external/k330.dat
 FILE TYPE:OPEN/CLOSE   UNIT 1070   STATUS:OLD
 FORMAT:FORMATTED              ACCESS:SEQUENTIAL
 ACTION:READ


 OPENED ./external/k331.dat
 FILE TYPE:OPEN/CLOSE   UNIT 1071   STATUS:OLD
 FORMAT:FORMATTED              ACCESS:SEQUENTIAL
 ACTION:READ


 OPENED ./external/k332.dat
 FILE TYPE:OPEN/CLOSE   UNIT 1072   STATUS:OLD
 FORMAT:FORMATTED              ACCESS:SEQUENTIAL
 ACTION:READ


 OPENED ./external/k333.dat
 FILE TYPE:OPEN/CLOSE   UNIT 1073   STATUS:OLD
 FORMAT:FORMATTED              ACCESS:SEQUENTIAL
 ACTION:READ


 OPENED ./external/k334.dat
 FILE TYPE:OPEN/CLOSE   UNIT 1074   STATUS:OLD
 FORMAT:FORMATTED              ACCESS:SEQUENTIAL
 ACTION:READ


 OPENED ./external/k335.dat
 FILE TYPE:OPEN/CLOSE   UNIT 1075   STATUS:OLD
 FORMAT:FORMATTED              ACCESS:SEQUENTIAL
 ACTION:READ


 OPENED ./external/k336.dat
 FILE TYPE:OPEN/CLOSE   UNIT 1076   STATUS:OLD
 FORMAT:FORMATTED              ACCESS:SEQUENTIAL
 ACTION:READ


 OPENED ./external/k337.dat
 FILE TYPE:OPEN/CLOSE   UNIT 1077   STATUS:OLD
 FORMAT:FORMATTED              ACCESS:SEQUENTIAL
 ACTION:READ


 OPENED ./external/k338.dat
 FILE TYPE:OPEN/CLOSE   UNIT 1078   STATUS:OLD
 FORMAT:FORMATTED              ACCESS:SEQUENTIAL
 ACTION:READ


 OPENED ./external/k339.dat
 FILE TYPE:OPEN/CLOSE   UNIT 1079   STATUS:OLD
 FORMAT:FORMATTED              ACCESS:SEQUENTIAL
 ACTION:READ


 OPENED ./external/k3310.dat
 FILE TYPE:OPEN/CLOSE   UNIT 1080   STATUS:OLD
 FORMAT:FORMATTED              ACCESS:SEQUENTIAL
 ACTION:READ


 OPENED ./external/k3311.dat
 FILE TYPE:OPEN/CLOSE   UNIT 1081   STATUS:OLD
 FORMAT:FORMATTED              ACCESS:SEQUENTIAL
 ACTION:READ


 OPENED ./external/k3312.dat
 FILE TYPE:OPEN/CLOSE   UNIT 1082   STATUS:OLD
 FORMAT:FORMATTED              ACCESS:SEQUENTIAL
 ACTION:READ

 K22 not provided.  Assuming K22 = K.
 END PROCESSING GRIDDATA

 STO -- STORAGE PACKAGE, VERSION 1, 5/19/2014 INPUT READ FROM UNIT 1008


 PROCESSING STORAGE OPTIONS
    CELL-BY-CELL FLOW INFORMATION WILL BE SAVED TO BINARY FILE WHENEVER ICBCFL IS NOT ZERO.
 END OF STORAGE OPTIONS
 PROCESSING GRIDDATA

                 ICONVERT = 1

 OPENED ./external/ss0.dat
 FILE TYPE:OPEN/CLOSE   UNIT 1083   STATUS:OLD
 FORMAT:FORMATTED              ACCESS:SEQUENTIAL
 ACTION:READ


 OPENED ./external/ss1.dat
 FILE TYPE:OPEN/CLOSE   UNIT 1084   STATUS:OLD
 FORMAT:FORMATTED              ACCESS:SEQUENTIAL
 ACTION:READ


 OPENED ./external/ss2.dat
 FILE TYPE:OPEN/CLOSE   UNIT 1085   STATUS:OLD
 FORMAT:FORMATTED              ACCESS:SEQUENTIAL
 ACTION:READ


 OPENED ./external/ss3.dat
 FILE TYPE:OPEN/CLOSE   UNIT 1086   STATUS:OLD
 FORMAT:FORMATTED              ACCESS:SEQUENTIAL
 ACTION:READ


 OPENED ./external/ss4.dat
 FILE TYPE:OPEN/CLOSE   UNIT 1087   STATUS:OLD
 FORMAT:FORMATTED              ACCESS:SEQUENTIAL
 ACTION:READ


 OPENED ./external/ss5.dat
 FILE TYPE:OPEN/CLOSE   UNIT 1088   STATUS:OLD
 FORMAT:FORMATTED              ACCESS:SEQUENTIAL
 ACTION:READ


 OPENED ./external/ss6.dat
 FILE TYPE:OPEN/CLOSE   UNIT 1089   STATUS:OLD
 FORMAT:FORMATTED              ACCESS:SEQUENTIAL
 ACTION:READ


 OPENED ./external/ss7.dat
 FILE TYPE:OPEN/CLOSE   UNIT 1090   STATUS:OLD
 FORMAT:FORMATTED              ACCESS:SEQUENTIAL
 ACTION:READ


 OPENED ./external/ss8.dat
 FILE TYPE:OPEN/CLOSE   UNIT 1091   STATUS:OLD
 FORMAT:FORMATTED              ACCESS:SEQUENTIAL
 ACTION:READ


 OPENED ./external/ss9.dat
 FILE TYPE:OPEN/CLOSE   UNIT 1092   STATUS:OLD
 FORMAT:FORMATTED              ACCESS:SEQUENTIAL
 ACTION:READ


 OPENED ./external/ss10.dat
 FILE TYPE:OPEN/CLOSE   UNIT 1093   STATUS:OLD
 FORMAT:FORMATTED              ACCESS:SEQUENTIAL
 ACTION:READ


 OPENED ./external/ss11.dat
 FILE TYPE:OPEN/CLOSE   UNIT 1094   STATUS:OLD
 FORMAT:FORMATTED              ACCESS:SEQUENTIAL
 ACTION:READ


 OPENED ./external/ss12.dat
 FILE TYPE:OPEN/CLOSE   UNIT 1095   STATUS:OLD
 FORMAT:FORMATTED              ACCESS:SEQUENTIAL
 ACTION:READ


 OPENED ./external/sy0.dat
 FILE TYPE:OPEN/CLOSE   UNIT 1096   STATUS:OLD
 FORMAT:FORMATTED              ACCESS:SEQUENTIAL
 ACTION:READ


 OPENED ./external/sy1.dat
 FILE TYPE:OPEN/CLOSE   UNIT 1097   STATUS:OLD
 FORMAT:FORMATTED              ACCESS:SEQUENTIAL
 ACTION:READ


 OPENED ./external/sy2.dat
 FILE TYPE:OPEN/CLOSE   UNIT 1098   STATUS:OLD
 FORMAT:FORMATTED              ACCESS:SEQUENTIAL
 ACTION:READ


 OPENED ./external/sy3.dat
 FILE TYPE:OPEN/CLOSE   UNIT 1099   STATUS:OLD
 FORMAT:FORMATTED              ACCESS:SEQUENTIAL
 ACTION:READ


 OPENED ./external/sy4.dat
 FILE TYPE:OPEN/CLOSE   UNIT 1100   STATUS:OLD
 FORMAT:FORMATTED              ACCESS:SEQUENTIAL
 ACTION:READ


 OPENED ./external/sy5.dat
 FILE TYPE:OPEN/CLOSE   UNIT 1101   STATUS:OLD
 FORMAT:FORMATTED              ACCESS:SEQUENTIAL
 ACTION:READ


 OPENED ./external/sy6.dat
 FILE TYPE:OPEN/CLOSE   UNIT 1102   STATUS:OLD
 FORMAT:FORMATTED              ACCESS:SEQUENTIAL
 ACTION:READ


 OPENED ./external/sy7.dat
 FILE TYPE:OPEN/CLOSE   UNIT 1103   STATUS:OLD
 FORMAT:FORMATTED              ACCESS:SEQUENTIAL
 ACTION:READ


 OPENED ./external/sy8.dat
 FILE TYPE:OPEN/CLOSE   UNIT 1104   STATUS:OLD
 FORMAT:FORMATTED              ACCESS:SEQUENTIAL
 ACTION:READ


 OPENED ./external/sy9.dat
 FILE TYPE:OPEN/CLOSE   UNIT 1105   STATUS:OLD
 FORMAT:FORMATTED              ACCESS:SEQUENTIAL
 ACTION:READ


 OPENED ./external/sy10.dat
 FILE TYPE:OPEN/CLOSE   UNIT 1106   STATUS:OLD
 FORMAT:FORMATTED              ACCESS:SEQUENTIAL
 ACTION:READ


 OPENED ./external/sy11.dat
 FILE TYPE:OPEN/CLOSE   UNIT 1107   STATUS:OLD
 FORMAT:FORMATTED              ACCESS:SEQUENTIAL
 ACTION:READ


 OPENED ./external/sy12.dat
 FILE TYPE:OPEN/CLOSE   UNIT 1108   STATUS:OLD
 FORMAT:FORMATTED              ACCESS:SEQUENTIAL
 ACTION:READ

 END PROCESSING GRIDDATA

The observation utility is active for "SHELLMOUND"

Processing observation options:

Text output number of digits of precision set to: 10
The PRINT_INPUT option has been specified.


Observations read from file "shellmound.obs":
Name                                      Type                             Time         Location data
----------------------------------------  -------------------------------  -----------  --------------------------
3131090171601                             Continuous HEAD                  All times    "4 27 28"
3131090171601                             Continuous HEAD                  All times    "5 27 28"
3131090171601                             Continuous HEAD                  All times    "6 27 28"
3131090171601                             Continuous HEAD                  All times    "7 27 28"
3131090171601                             Continuous HEAD                  All times    "8 27 28"
3131090171601                             Continuous HEAD                  All times    "9 27 28"
3131090171601                             Continuous HEAD                  All times    "10 27 28"
3131090171601                             Continuous HEAD                  All times    "11 27 28"
3131090171601                             Continuous HEAD                  All times    "12 27 28"
3131090171601                             Continuous HEAD                  All times    "13 27 28"
3144090145401                             Continuous HEAD                  All times    "4 27 30"
3144090145401                             Continuous HEAD                  All times    "5 27 30"
3144090145401                             Continuous HEAD                  All times    "6 27 30"
3144090145401                             Continuous HEAD                  All times    "7 27 30"
3144090145401                             Continuous HEAD                  All times    "8 27 30"
3144090145401                             Continuous HEAD                  All times    "9 27 30"
3144090145401                             Continuous HEAD                  All times    "10 27 30"
3144090145401                             Continuous HEAD                  All times    "11 27 30"
3144090145401                             Continuous HEAD                  All times    "12 27 30"
3144090145401                             Continuous HEAD                  All times    "13 27 30"
3148090142501                             Continuous HEAD                  All times    "4 27 31"
3148090142501                             Continuous HEAD                  All times    "5 27 31"
3148090142501                             Continuous HEAD                  All times    "6 27 31"
3148090142501                             Continuous HEAD                  All times    "7 27 31"
3148090142501                             Continuous HEAD                  All times    "8 27 31"
3148090142501                             Continuous HEAD                  All times    "9 27 31"
3148090142501                             Continuous HEAD                  All times    "10 27 31"
3148090142501                             Continuous HEAD                  All times    "11 27 31"
3148090142501                             Continuous HEAD                  All times    "12 27 31"
3148090142501                             Continuous HEAD                  All times    "13 27 31"
3154090175201                             Continuous HEAD                  All times    "4 27 25"
3154090175201                             Continuous HEAD                  All times    "5 27 25"
3154090175201                             Continuous HEAD                  All times    "6 27 25"
3154090175201                             Continuous HEAD                  All times    "7 27 25"
3154090175201                             Continuous HEAD                  All times    "8 27 25"
3154090175201                             Continuous HEAD                  All times    "9 27 25"
3154090175201                             Continuous HEAD                  All times    "10 27 25"
3154090175201                             Continuous HEAD                  All times    "11 27 25"
3154090175201                             Continuous HEAD                  All times    "12 27 25"
3154090175201                             Continuous HEAD                  All times    "13 27 25"
3154090183901                             Continuous HEAD                  All times    "4 27 24"
3154090183901                             Continuous HEAD                  All times    "5 27 24"
3154090183901                             Continuous HEAD                  All times    "6 27 24"
3154090183901                             Continuous HEAD                  All times    "7 27 24"
3154090183901                             Continuous HEAD                  All times    "8 27 24"
3154090183901                             Continuous HEAD                  All times    "9 27 24"
3154090183901                             Continuous HEAD                  All times    "10 27 24"
3154090183901                             Continuous HEAD                  All times    "11 27 24"
3154090183901                             Continuous HEAD                  All times    "12 27 24"
3154090183901                             Continuous HEAD                  All times    "13 27 24"
3157090185501                             Continuous HEAD                  All times    "4 27 24"
3157090185501                             Continuous HEAD                  All times    "5 27 24"
3157090185501                             Continuous HEAD                  All times    "6 27 24"
3157090185501                             Continuous HEAD                  All times    "7 27 24"
3157090185501                             Continuous HEAD                  All times    "8 27 24"
3157090185501                             Continuous HEAD                  All times    "9 27 24"
3157090185501                             Continuous HEAD                  All times    "10 27 24"
3157090185501                             Continuous HEAD                  All times    "11 27 24"
3157090185501                             Continuous HEAD                  All times    "12 27 24"
3157090185501                             Continuous HEAD                  All times    "13 27 24"
3203090205301                             Continuous HEAD                  All times    "4 27 21"
3203090205301                             Continuous HEAD                  All times    "5 27 21"
3203090205301                             Continuous HEAD                  All times    "6 27 21"
3203090205301                             Continuous HEAD                  All times    "7 27 21"
3203090205301                             Continuous HEAD                  All times    "8 27 21"
3203090205301                             Continuous HEAD                  All times    "9 27 21"
3203090205301                             Continuous HEAD                  All times    "10 27 21"
3203090205301                             Continuous HEAD                  All times    "11 27 21"
3203090205301                             Continuous HEAD                  All times    "12 27 21"
3203090205301                             Continuous HEAD                  All times    "13 27 21"
3206090185401                             Continuous HEAD                  All times    "4 27 24"
3206090185401                             Continuous HEAD                  All times    "5 27 24"
3206090185401                             Continuous HEAD                  All times    "6 27 24"
3206090185401                             Continuous HEAD                  All times    "7 27 24"
3206090185401                             Continuous HEAD                  All times    "8 27 24"
3206090185401                             Continuous HEAD                  All times    "9 27 24"
3206090185401                             Continuous HEAD                  All times    "10 27 24"
3206090185401                             Continuous HEAD                  All times    "11 27 24"
3206090185401                             Continuous HEAD                  All times    "12 27 24"
3206090185401                             Continuous HEAD                  All times    "13 27 24"
3209090220401                             Continuous HEAD                  All times    "4 27 19"
3209090220401                             Continuous HEAD                  All times    "5 27 19"
3209090220401                             Continuous HEAD                  All times    "6 27 19"
3209090220401                             Continuous HEAD                  All times    "7 27 19"
3209090220401                             Continuous HEAD                  All times    "8 27 19"
3209090220401                             Continuous HEAD                  All times    "9 27 19"
3209090220401                             Continuous HEAD                  All times    "10 27 19"
3209090220401                             Continuous HEAD                  All times    "11 27 19"
3209090220401                             Continuous HEAD                  All times    "12 27 19"
3209090220401                             Continuous HEAD                  All times    "13 27 19"
3219090145601                             Continuous HEAD                  All times    "4 26 30"
3219090145601                             Continuous HEAD                  All times    "5 26 30"
3219090145601                             Continuous HEAD                  All times    "6 26 30"
3219090145601                             Continuous HEAD                  All times    "7 26 30"
3219090145601                             Continuous HEAD                  All times    "8 26 30"
3219090145601                             Continuous HEAD                  All times    "9 26 30"
3219090145601                             Continuous HEAD                  All times    "10 26 30"
3219090145601                             Continuous HEAD                  All times    "11 26 30"
3219090145601                             Continuous HEAD                  All times    "12 26 30"
3219090145601                             Continuous HEAD                  All times    "13 26 30"
3220090151201                             Continuous HEAD                  All times    "4 26 29"
3220090151201                             Continuous HEAD                  All times    "5 26 29"
3220090151201                             Continuous HEAD                  All times    "6 26 29"
3220090151201                             Continuous HEAD                  All times    "7 26 29"
3220090151201                             Continuous HEAD                  All times    "8 26 29"
3220090151201                             Continuous HEAD                  All times    "9 26 29"
3220090151201                             Continuous HEAD                  All times    "10 26 29"
3220090151201                             Continuous HEAD                  All times    "11 26 29"
3220090151201                             Continuous HEAD                  All times    "12 26 29"
3220090151201                             Continuous HEAD                  All times    "13 26 29"
3224090252801                             Continuous HEAD                  All times    "4 27 14"
3224090252801                             Continuous HEAD                  All times    "5 27 14"
3224090252801                             Continuous HEAD                  All times    "6 27 14"
3224090252801                             Continuous HEAD                  All times    "7 27 14"
3224090252801                             Continuous HEAD                  All times    "8 27 14"
3224090252801                             Continuous HEAD                  All times    "9 27 14"
3224090252801                             Continuous HEAD                  All times    "10 27 14"
3224090252801                             Continuous HEAD                  All times    "11 27 14"
3224090252801                             Continuous HEAD                  All times    "12 27 14"
3224090252801                             Continuous HEAD                  All times    "13 27 14"
3225090284501                             Continuous HEAD                  All times    "1 27 8"
3225090284501                             Continuous HEAD                  All times    "2 27 8"
3225090284501                             Continuous HEAD                  All times    "3 27 8"
3225090284501                             Continuous HEAD                  All times    "4 27 8"
3225090284501                             Continuous HEAD                  All times    "5 27 8"
3225090284501                             Continuous HEAD                  All times    "6 27 8"
3225090284501                             Continuous HEAD                  All times    "7 27 8"
3225090284501                             Continuous HEAD                  All times    "8 27 8"
3225090284501                             Continuous HEAD                  All times    "9 27 8"
3225090284501                             Continuous HEAD                  All times    "10 27 8"
3225090284501                             Continuous HEAD                  All times    "11 27 8"
3225090284501                             Continuous HEAD                  All times    "12 27 8"
3225090284501                             Continuous HEAD                  All times    "13 27 8"
3226090283701                             Continuous HEAD                  All times    "1 27 9"
3226090283701                             Continuous HEAD                  All times    "2 27 9"
3226090283701                             Continuous HEAD                  All times    "3 27 9"
3226090283701                             Continuous HEAD                  All times    "4 27 9"
3226090283701                             Continuous HEAD                  All times    "5 27 9"
3226090283701                             Continuous HEAD                  All times    "6 27 9"
3226090283701                             Continuous HEAD                  All times    "7 27 9"
3226090283701                             Continuous HEAD                  All times    "8 27 9"
3226090283701                             Continuous HEAD                  All times    "9 27 9"
3226090283701                             Continuous HEAD                  All times    "10 27 9"
3226090283701                             Continuous HEAD                  All times    "11 27 9"
3226090283701                             Continuous HEAD                  All times    "12 27 9"
3226090283701                             Continuous HEAD                  All times    "13 27 9"
3227090174201                             Continuous HEAD                  All times    "4 26 25"
3227090174201                             Continuous HEAD                  All times    "5 26 25"
3227090174201                             Continuous HEAD                  All times    "6 26 25"
3227090174201                             Continuous HEAD                  All times    "7 26 25"
3227090174201                             Continuous HEAD                  All times    "8 26 25"
3227090174201                             Continuous HEAD                  All times    "9 26 25"
3227090174201                             Continuous HEAD                  All times    "10 26 25"
3227090174201                             Continuous HEAD                  All times    "11 26 25"
3227090174201                             Continuous HEAD                  All times    "12 26 25"
3227090174201                             Continuous HEAD                  All times    "13 26 25"
3228090273001                             Continuous HEAD                  All times    "1 27 10"
3228090273001                             Continuous HEAD                  All times    "2 27 10"
3228090273001                             Continuous HEAD                  All times    "3 27 10"
3228090273001                             Continuous HEAD                  All times    "4 27 10"
3228090273001                             Continuous HEAD                  All times    "5 27 10"
3228090273001                             Continuous HEAD                  All times    "6 27 10"
3228090273001                             Continuous HEAD                  All times    "7 27 10"
3228090273001                             Continuous HEAD                  All times    "8 27 10"
3228090273001                             Continuous HEAD                  All times    "9 27 10"
3228090273001                             Continuous HEAD                  All times    "10 27 10"
3228090273001                             Continuous HEAD                  All times    "11 27 10"
3228090273001                             Continuous HEAD                  All times    "12 27 10"
3228090273001                             Continuous HEAD                  All times    "13 27 10"
3230090283401                             Continuous HEAD                  All times    "1 27 9"
3230090283401                             Continuous HEAD                  All times    "2 27 9"
3230090283401                             Continuous HEAD                  All times    "3 27 9"
3230090283401                             Continuous HEAD                  All times    "4 27 9"
3230090283401                             Continuous HEAD                  All times    "5 27 9"
3230090283401                             Continuous HEAD                  All times    "6 27 9"
3230090283401                             Continuous HEAD                  All times    "7 27 9"
3230090283401                             Continuous HEAD                  All times    "8 27 9"
3230090283401                             Continuous HEAD                  All times    "9 27 9"
3230090283401                             Continuous HEAD                  All times    "10 27 9"
3230090283401                             Continuous HEAD                  All times    "11 27 9"
3230090283401                             Continuous HEAD                  All times    "12 27 9"
3230090283401                             Continuous HEAD                  All times    "13 27 9"
3230090285201                             Continuous HEAD                  All times    "1 27 8"
3230090285201                             Continuous HEAD                  All times    "2 27 8"
3230090285201                             Continuous HEAD                  All times    "3 27 8"
3230090285201                             Continuous HEAD                  All times    "4 27 8"
3230090285201                             Continuous HEAD                  All times    "5 27 8"
3230090285201                             Continuous HEAD                  All times    "6 27 8"
3230090285201                             Continuous HEAD                  All times    "7 27 8"
3230090285201                             Continuous HEAD                  All times    "8 27 8"
3230090285201                             Continuous HEAD                  All times    "9 27 8"
3230090285201                             Continuous HEAD                  All times    "10 27 8"
3230090285201                             Continuous HEAD                  All times    "11 27 8"
3230090285201                             Continuous HEAD                  All times    "12 27 8"
3230090285201                             Continuous HEAD                  All times    "13 27 8"
3230090303801                             Continuous HEAD                  All times    "1 27 6"
3230090303801                             Continuous HEAD                  All times    "2 27 6"
3230090303801                             Continuous HEAD                  All times    "3 27 6"
3230090303801                             Continuous HEAD                  All times    "4 27 6"
3230090303801                             Continuous HEAD                  All times    "5 27 6"
3230090303801                             Continuous HEAD                  All times    "6 27 6"
3230090303801                             Continuous HEAD                  All times    "7 27 6"
3230090303801                             Continuous HEAD                  All times    "8 27 6"
3230090303801                             Continuous HEAD                  All times    "9 27 6"
3230090303801                             Continuous HEAD                  All times    "10 27 6"
3230090303801                             Continuous HEAD                  All times    "11 27 6"
3230090303801                             Continuous HEAD                  All times    "12 27 6"
3230090303801                             Continuous HEAD                  All times    "13 27 6"
3231090213701                             Continuous HEAD                  All times    "4 27 19"
3231090213701                             Continuous HEAD                  All times    "5 27 19"
3231090213701                             Continuous HEAD                  All times    "6 27 19"
3231090213701                             Continuous HEAD                  All times    "7 27 19"
3231090213701                             Continuous HEAD                  All times    "8 27 19"
3231090213701                             Continuous HEAD                  All times    "9 27 19"
3231090213701                             Continuous HEAD                  All times    "10 27 19"
3231090213701                             Continuous HEAD                  All times    "11 27 19"
3231090213701                             Continuous HEAD                  All times    "12 27 19"
3231090213701                             Continuous HEAD                  All times    "13 27 19"
3232090212001                             Continuous HEAD                  All times    "4 26 20"
3232090212001                             Continuous HEAD                  All times    "5 26 20"
3232090212001                             Continuous HEAD                  All times    "6 26 20"
3232090212001                             Continuous HEAD                  All times    "7 26 20"
3232090212001                             Continuous HEAD                  All times    "8 26 20"
3232090212001                             Continuous HEAD                  All times    "9 26 20"
3232090212001                             Continuous HEAD                  All times    "10 26 20"
3232090212001                             Continuous HEAD                  All times    "11 26 20"
3232090212001                             Continuous HEAD                  All times    "12 26 20"
3232090212001                             Continuous HEAD                  All times    "13 26 20"
3232090273201                             Continuous HEAD                  All times    "1 27 10"
3232090273201                             Continuous HEAD                  All times    "2 27 10"
3232090273201                             Continuous HEAD                  All times    "3 27 10"
3232090273201                             Continuous HEAD                  All times    "4 27 10"
3232090273201                             Continuous HEAD                  All times    "5 27 10"
3232090273201                             Continuous HEAD                  All times    "6 27 10"
3232090273201                             Continuous HEAD                  All times    "7 27 10"
3232090273201                             Continuous HEAD                  All times    "8 27 10"
3232090273201                             Continuous HEAD                  All times    "9 27 10"
3232090273201                             Continuous HEAD                  All times    "10 27 10"
3232090273201                             Continuous HEAD                  All times    "11 27 10"
3232090273201                             Continuous HEAD                  All times    "12 27 10"
3232090273201                             Continuous HEAD                  All times    "13 27 10"
3232090273202                             Continuous HEAD                  All times    "1 27 10"
3232090273202                             Continuous HEAD                  All times    "2 27 10"
3232090273202                             Continuous HEAD                  All times    "3 27 10"
3232090273202                             Continuous HEAD                  All times    "4 27 10"
3232090273202                             Continuous HEAD                  All times    "5 27 10"
3232090273202                             Continuous HEAD                  All times    "6 27 10"
3232090273202                             Continuous HEAD                  All times    "7 27 10"
3232090273202                             Continuous HEAD                  All times    "8 27 10"
3232090273202                             Continuous HEAD                  All times    "9 27 10"
3232090273202                             Continuous HEAD                  All times    "10 27 10"
3232090273202                             Continuous HEAD                  All times    "11 27 10"
3232090273202                             Continuous HEAD                  All times    "12 27 10"
3232090273202                             Continuous HEAD                  All times    "13 27 10"
3232090294401                             Continuous HEAD                  All times    "1 27 7"
3232090294401                             Continuous HEAD                  All times    "2 27 7"
3232090294401                             Continuous HEAD                  All times    "3 27 7"
3232090294401                             Continuous HEAD                  All times    "4 27 7"
3232090294401                             Continuous HEAD                  All times    "5 27 7"
3232090294401                             Continuous HEAD                  All times    "6 27 7"
3232090294401                             Continuous HEAD                  All times    "7 27 7"
3232090294401                             Continuous HEAD                  All times    "8 27 7"
3232090294401                             Continuous HEAD                  All times    "9 27 7"
3232090294401                             Continuous HEAD                  All times    "10 27 7"
3232090294401                             Continuous HEAD                  All times    "11 27 7"
3232090294401                             Continuous HEAD                  All times    "12 27 7"
3232090294401                             Continuous HEAD                  All times    "13 27 7"
3233090163101                             Continuous HEAD                  All times    "4 26 27"
3233090163101                             Continuous HEAD                  All times    "5 26 27"
3233090163101                             Continuous HEAD                  All times    "6 26 27"
3233090163101                             Continuous HEAD                  All times    "7 26 27"
3233090163101                             Continuous HEAD                  All times    "8 26 27"
3233090163101                             Continuous HEAD                  All times    "9 26 27"
3233090163101                             Continuous HEAD                  All times    "10 26 27"
3233090163101                             Continuous HEAD                  All times    "11 26 27"
3233090163101                             Continuous HEAD                  All times    "12 26 27"
3233090163101                             Continuous HEAD                  All times    "13 26 27"
3233090292201                             Continuous HEAD                  All times    "1 27 7"
3233090292201                             Continuous HEAD                  All times    "2 27 7"
3233090292201                             Continuous HEAD                  All times    "3 27 7"
3233090292201                             Continuous HEAD                  All times    "4 27 7"
3233090292201                             Continuous HEAD                  All times    "5 27 7"
3233090292201                             Continuous HEAD                  All times    "6 27 7"
3233090292201                             Continuous HEAD                  All times    "7 27 7"
3233090292201                             Continuous HEAD                  All times    "8 27 7"
3233090292201                             Continuous HEAD                  All times    "9 27 7"
3233090292201                             Continuous HEAD                  All times    "10 27 7"
3233090292201                             Continuous HEAD                  All times    "11 27 7"
3233090292201                             Continuous HEAD                  All times    "12 27 7"
3233090292201                             Continuous HEAD                  All times    "13 27 7"
3233090302101                             Continuous HEAD                  All times    "1 27 6"
3233090302101                             Continuous HEAD                  All times    "2 27 6"
3233090302101                             Continuous HEAD                  All times    "3 27 6"
3233090302101                             Continuous HEAD                  All times    "4 27 6"
3233090302101                             Continuous HEAD                  All times    "5 27 6"
3233090302101                             Continuous HEAD                  All times    "6 27 6"
3233090302101                             Continuous HEAD                  All times    "7 27 6"
3233090302101                             Continuous HEAD                  All times    "8 27 6"
3233090302101                             Continuous HEAD                  All times    "9 27 6"
3233090302101                             Continuous HEAD                  All times    "10 27 6"
3233090302101                             Continuous HEAD                  All times    "11 27 6"
3233090302101                             Continuous HEAD                  All times    "12 27 6"
3233090302101                             Continuous HEAD                  All times    "13 27 6"
3233090312201                             Continuous HEAD                  All times    "1 27 4"
3233090312201                             Continuous HEAD                  All times    "2 27 4"
3233090312201                             Continuous HEAD                  All times    "3 27 4"
3233090312201                             Continuous HEAD                  All times    "4 27 4"
3233090312201                             Continuous HEAD                  All times    "5 27 4"
3233090312201                             Continuous HEAD                  All times    "6 27 4"
3233090312201                             Continuous HEAD                  All times    "7 27 4"
3233090312201                             Continuous HEAD                  All times    "8 27 4"
3233090312201                             Continuous HEAD                  All times    "9 27 4"
3233090312201                             Continuous HEAD                  All times    "10 27 4"
3233090312201                             Continuous HEAD                  All times    "11 27 4"
3233090312201                             Continuous HEAD                  All times    "12 27 4"
3233090312201                             Continuous HEAD                  All times    "13 27 4"
3234090313501                             Continuous HEAD                  All times    "1 27 4"
3234090313501                             Continuous HEAD                  All times    "2 27 4"
3234090313501                             Continuous HEAD                  All times    "3 27 4"
3234090313501                             Continuous HEAD                  All times    "4 27 4"
3234090313501                             Continuous HEAD                  All times    "5 27 4"
3234090313501                             Continuous HEAD                  All times    "6 27 4"
3234090313501                             Continuous HEAD                  All times    "7 27 4"
3234090313501                             Continuous HEAD                  All times    "8 27 4"
3234090313501                             Continuous HEAD                  All times    "9 27 4"
3234090313501                             Continuous HEAD                  All times    "10 27 4"
3234090313501                             Continuous HEAD                  All times    "11 27 4"
3234090313501                             Continuous HEAD                  All times    "12 27 4"
3234090313501                             Continuous HEAD                  All times    "13 27 4"
3234090314601                             Continuous HEAD                  All times    "1 27 4"
3234090314601                             Continuous HEAD                  All times    "2 27 4"
3234090314601                             Continuous HEAD                  All times    "3 27 4"
3234090314601                             Continuous HEAD                  All times    "4 27 4"
3234090314601                             Continuous HEAD                  All times    "5 27 4"
3234090314601                             Continuous HEAD                  All times    "6 27 4"
3234090314601                             Continuous HEAD                  All times    "7 27 4"
3234090314601                             Continuous HEAD                  All times    "8 27 4"
3234090314601                             Continuous HEAD                  All times    "9 27 4"
3234090314601                             Continuous HEAD                  All times    "10 27 4"
3234090314601                             Continuous HEAD                  All times    "11 27 4"
3234090314601                             Continuous HEAD                  All times    "12 27 4"
3234090314601                             Continuous HEAD                  All times    "13 27 4"
3235090281601                             Continuous HEAD                  All times    "1 27 9"
3235090281601                             Continuous HEAD                  All times    "2 27 9"
3235090281601                             Continuous HEAD                  All times    "3 27 9"
3235090281601                             Continuous HEAD                  All times    "4 27 9"
3235090281601                             Continuous HEAD                  All times    "5 27 9"
3235090281601                             Continuous HEAD                  All times    "6 27 9"
3235090281601                             Continuous HEAD                  All times    "7 27 9"
3235090281601                             Continuous HEAD                  All times    "8 27 9"
3235090281601                             Continuous HEAD                  All times    "9 27 9"
3235090281601                             Continuous HEAD                  All times    "10 27 9"
3235090281601                             Continuous HEAD                  All times    "11 27 9"
3235090281601                             Continuous HEAD                  All times    "12 27 9"
3235090281601                             Continuous HEAD                  All times    "13 27 9"
3235090305701                             Continuous HEAD                  All times    "1 27 5"
3235090305701                             Continuous HEAD                  All times    "2 27 5"
3235090305701                             Continuous HEAD                  All times    "3 27 5"
3235090305701                             Continuous HEAD                  All times    "4 27 5"
3235090305701                             Continuous HEAD                  All times    "5 27 5"
3235090305701                             Continuous HEAD                  All times    "6 27 5"
3235090305701                             Continuous HEAD                  All times    "7 27 5"
3235090305701                             Continuous HEAD                  All times    "8 27 5"
3235090305701                             Continuous HEAD                  All times    "9 27 5"
3235090305701                             Continuous HEAD                  All times    "10 27 5"
3235090305701                             Continuous HEAD                  All times    "11 27 5"
3235090305701                             Continuous HEAD                  All times    "12 27 5"
3235090305701                             Continuous HEAD                  All times    "13 27 5"
3236090213801                             Continuous HEAD                  All times    "4 26 19"
3236090213801                             Continuous HEAD                  All times    "5 26 19"
3236090213801                             Continuous HEAD                  All times    "6 26 19"
3236090213801                             Continuous HEAD                  All times    "7 26 19"
3236090213801                             Continuous HEAD                  All times    "8 26 19"
3236090213801                             Continuous HEAD                  All times    "9 26 19"
3236090213801                             Continuous HEAD                  All times    "10 26 19"
3236090213801                             Continuous HEAD                  All times    "11 26 19"
3236090213801                             Continuous HEAD                  All times    "12 26 19"
3236090213801                             Continuous HEAD                  All times    "13 26 19"
3236090314201                             Continuous HEAD                  All times    "1 27 4"
3236090314201                             Continuous HEAD                  All times    "2 27 4"
3236090314201                             Continuous HEAD                  All times    "3 27 4"
3236090314201                             Continuous HEAD                  All times    "4 27 4"
3236090314201                             Continuous HEAD                  All times    "5 27 4"
3236090314201                             Continuous HEAD                  All times    "6 27 4"
3236090314201                             Continuous HEAD                  All times    "7 27 4"
3236090314201                             Continuous HEAD                  All times    "8 27 4"
3236090314201                             Continuous HEAD                  All times    "9 27 4"
3236090314201                             Continuous HEAD                  All times    "10 27 4"
3236090314201                             Continuous HEAD                  All times    "11 27 4"
3236090314201                             Continuous HEAD                  All times    "12 27 4"
3236090314201                             Continuous HEAD                  All times    "13 27 4"
3238090285001                             Continuous HEAD                  All times    "1 27 8"
3238090285001                             Continuous HEAD                  All times    "2 27 8"
3238090285001                             Continuous HEAD                  All times    "3 27 8"
3238090285001                             Continuous HEAD                  All times    "4 27 8"
3238090285001                             Continuous HEAD                  All times    "5 27 8"
3238090285001                             Continuous HEAD                  All times    "6 27 8"
3238090285001                             Continuous HEAD                  All times    "7 27 8"
3238090285001                             Continuous HEAD                  All times    "8 27 8"
3238090285001                             Continuous HEAD                  All times    "9 27 8"
3238090285001                             Continuous HEAD                  All times    "10 27 8"
3238090285001                             Continuous HEAD                  All times    "11 27 8"
3238090285001                             Continuous HEAD                  All times    "12 27 8"
3238090285001                             Continuous HEAD                  All times    "13 27 8"
3239090271001                             Continuous HEAD                  All times    "1 27 11"
3239090271001                             Continuous HEAD                  All times    "2 27 11"
3239090271001                             Continuous HEAD                  All times    "3 27 11"
3239090271001                             Continuous HEAD                  All times    "4 27 11"
3239090271001                             Continuous HEAD                  All times    "5 27 11"
3239090271001                             Continuous HEAD                  All times    "6 27 11"
3239090271001                             Continuous HEAD                  All times    "7 27 11"
3239090271001                             Continuous HEAD                  All times    "8 27 11"
3239090271001                             Continuous HEAD                  All times    "9 27 11"
3239090271001                             Continuous HEAD                  All times    "10 27 11"
3239090271001                             Continuous HEAD                  All times    "11 27 11"
3239090271001                             Continuous HEAD                  All times    "12 27 11"
3239090271001                             Continuous HEAD                  All times    "13 27 11"
3240090274801                             Continuous HEAD                  All times    "1 27 10"
3240090274801                             Continuous HEAD                  All times    "2 27 10"
3240090274801                             Continuous HEAD                  All times    "3 27 10"
3240090274801                             Continuous HEAD                  All times    "4 27 10"
3240090274801                             Continuous HEAD                  All times    "5 27 10"
3240090274801                             Continuous HEAD                  All times    "6 27 10"
3240090274801                             Continuous HEAD                  All times    "7 27 10"
3240090274801                             Continuous HEAD                  All times    "8 27 10"
3240090274801                             Continuous HEAD                  All times    "9 27 10"
3240090274801                             Continuous HEAD                  All times    "10 27 10"
3240090274801                             Continuous HEAD                  All times    "11 27 10"
3240090274801                             Continuous HEAD                  All times    "12 27 10"
3240090274801                             Continuous HEAD                  All times    "13 27 10"
3244090195201                             Continuous HEAD                  All times    "4 26 22"
3244090195201                             Continuous HEAD                  All times    "5 26 22"
3244090195201                             Continuous HEAD                  All times    "6 26 22"
3244090195201                             Continuous HEAD                  All times    "7 26 22"
3244090195201                             Continuous HEAD                  All times    "8 26 22"
3244090195201                             Continuous HEAD                  All times    "9 26 22"
3244090195201                             Continuous HEAD                  All times    "10 26 22"
3244090195201                             Continuous HEAD                  All times    "11 26 22"
3244090195201                             Continuous HEAD                  All times    "12 26 22"
3244090195201                             Continuous HEAD                  All times    "13 26 22"
3245090274501                             Continuous HEAD                  All times    "1 27 10"
3245090274501                             Continuous HEAD                  All times    "2 27 10"
3245090274501                             Continuous HEAD                  All times    "3 27 10"
3245090274501                             Continuous HEAD                  All times    "4 27 10"
3245090274501                             Continuous HEAD                  All times    "5 27 10"
3245090274501                             Continuous HEAD                  All times    "6 27 10"
3245090274501                             Continuous HEAD                  All times    "7 27 10"
3245090274501                             Continuous HEAD                  All times    "8 27 10"
3245090274501                             Continuous HEAD                  All times    "9 27 10"
3245090274501                             Continuous HEAD                  All times    "10 27 10"
3245090274501                             Continuous HEAD                  All times    "11 27 10"
3245090274501                             Continuous HEAD                  All times    "12 27 10"
3245090274501                             Continuous HEAD                  All times    "13 27 10"
3245090292801                             Continuous HEAD                  All times    "1 27 7"
3245090292801                             Continuous HEAD                  All times    "2 27 7"
3245090292801                             Continuous HEAD                  All times    "3 27 7"
3245090292801                             Continuous HEAD                  All times    "4 27 7"
3245090292801                             Continuous HEAD                  All times    "5 27 7"
3245090292801                             Continuous HEAD                  All times    "6 27 7"
3245090292801                             Continuous HEAD                  All times    "7 27 7"
3245090292801                             Continuous HEAD                  All times    "8 27 7"
3245090292801                             Continuous HEAD                  All times    "9 27 7"
3245090292801                             Continuous HEAD                  All times    "10 27 7"
3245090292801                             Continuous HEAD                  All times    "11 27 7"
3245090292801                             Continuous HEAD                  All times    "12 27 7"
3245090292801                             Continuous HEAD                  All times    "13 27 7"
3248090290701                             Continuous HEAD                  All times    "1 27 8"
3248090290701                             Continuous HEAD                  All times    "2 27 8"
3248090290701                             Continuous HEAD                  All times    "3 27 8"
3248090290701                             Continuous HEAD                  All times    "4 27 8"
3248090290701                             Continuous HEAD                  All times    "5 27 8"
3248090290701                             Continuous HEAD                  All times    "6 27 8"
3248090290701                             Continuous HEAD                  All times    "7 27 8"
3248090290701                             Continuous HEAD                  All times    "8 27 8"
3248090290701                             Continuous HEAD                  All times    "9 27 8"
3248090290701                             Continuous HEAD                  All times    "10 27 8"
3248090290701                             Continuous HEAD                  All times    "11 27 8"
3248090290701                             Continuous HEAD                  All times    "12 27 8"
3248090290701                             Continuous HEAD                  All times    "13 27 8"
3250090211801                             Continuous HEAD                  All times    "4 26 20"
3250090211801                             Continuous HEAD                  All times    "5 26 20"
3250090211801                             Continuous HEAD                  All times    "6 26 20"
3250090211801                             Continuous HEAD                  All times    "7 26 20"
3250090211801                             Continuous HEAD                  All times    "8 26 20"
3250090211801                             Continuous HEAD                  All times    "9 26 20"
3250090211801                             Continuous HEAD                  All times    "10 26 20"
3250090211801                             Continuous HEAD                  All times    "11 26 20"
3250090211801                             Continuous HEAD                  All times    "12 26 20"
3250090211801                             Continuous HEAD                  All times    "13 26 20"
3251090291501                             Continuous HEAD                  All times    "1 27 8"
3251090291501                             Continuous HEAD                  All times    "2 27 8"
3251090291501                             Continuous HEAD                  All times    "3 27 8"
3251090291501                             Continuous HEAD                  All times    "4 27 8"
3251090291501                             Continuous HEAD                  All times    "5 27 8"
3251090291501                             Continuous HEAD                  All times    "6 27 8"
3251090291501                             Continuous HEAD                  All times    "7 27 8"
3251090291501                             Continuous HEAD                  All times    "8 27 8"
3251090291501                             Continuous HEAD                  All times    "9 27 8"
3251090291501                             Continuous HEAD                  All times    "10 27 8"
3251090291501                             Continuous HEAD                  All times    "11 27 8"
3251090291501                             Continuous HEAD                  All times    "12 27 8"
3251090291501                             Continuous HEAD                  All times    "13 27 8"
3252090321601                             Continuous HEAD                  All times    "1 27 3"
3252090321601                             Continuous HEAD                  All times    "2 27 3"
3252090321601                             Continuous HEAD                  All times    "3 27 3"
3252090321601                             Continuous HEAD                  All times    "4 27 3"
3252090321601                             Continuous HEAD                  All times    "5 27 3"
3252090321601                             Continuous HEAD                  All times    "6 27 3"
3252090321601                             Continuous HEAD                  All times    "7 27 3"
3252090321601                             Continuous HEAD                  All times    "8 27 3"
3252090321601                             Continuous HEAD                  All times    "9 27 3"
3252090321601                             Continuous HEAD                  All times    "10 27 3"
3252090321601                             Continuous HEAD                  All times    "11 27 3"
3252090321601                             Continuous HEAD                  All times    "12 27 3"
3252090321601                             Continuous HEAD                  All times    "13 27 3"
3256090301301                             Continuous HEAD                  All times    "1 27 6"
3256090301301                             Continuous HEAD                  All times    "2 27 6"
3256090301301                             Continuous HEAD                  All times    "3 27 6"
3256090301301                             Continuous HEAD                  All times    "4 27 6"
3256090301301                             Continuous HEAD                  All times    "5 27 6"
3256090301301                             Continuous HEAD                  All times    "6 27 6"
3256090301301                             Continuous HEAD                  All times    "7 27 6"
3256090301301                             Continuous HEAD                  All times    "8 27 6"
3256090301301                             Continuous HEAD                  All times    "9 27 6"
3256090301301                             Continuous HEAD                  All times    "10 27 6"
3256090301301                             Continuous HEAD                  All times    "11 27 6"
3256090301301                             Continuous HEAD                  All times    "12 27 6"
3256090301301                             Continuous HEAD                  All times    "13 27 6"
3257090191501                             Continuous HEAD                  All times    "4 26 23"
3257090191501                             Continuous HEAD                  All times    "5 26 23"
3257090191501                             Continuous HEAD                  All times    "6 26 23"
3257090191501                             Continuous HEAD                  All times    "7 26 23"
3257090191501                             Continuous HEAD                  All times    "8 26 23"
3257090191501                             Continuous HEAD                  All times    "9 26 23"
3257090191501                             Continuous HEAD                  All times    "10 26 23"
3257090191501                             Continuous HEAD                  All times    "11 26 23"
3257090191501                             Continuous HEAD                  All times    "12 26 23"
3257090191501                             Continuous HEAD                  All times    "13 26 23"
3259090121001                             Continuous HEAD                  All times    "4 25 34"
3259090121001                             Continuous HEAD                  All times    "5 25 34"
3259090121001                             Continuous HEAD                  All times    "6 25 34"
3259090121001                             Continuous HEAD                  All times    "7 25 34"
3259090121001                             Continuous HEAD                  All times    "8 25 34"
3259090121001                             Continuous HEAD                  All times    "9 25 34"
3259090121001                             Continuous HEAD                  All times    "10 25 34"
3259090121001                             Continuous HEAD                  All times    "11 25 34"
3259090121001                             Continuous HEAD                  All times    "12 25 34"
3259090121001                             Continuous HEAD                  All times    "13 25 34"
3300090182401                             Continuous HEAD                  All times    "4 25 24"
3300090182401                             Continuous HEAD                  All times    "5 25 24"
3300090182401                             Continuous HEAD                  All times    "6 25 24"
3300090182401                             Continuous HEAD                  All times    "7 25 24"
3300090182401                             Continuous HEAD                  All times    "8 25 24"
3300090182401                             Continuous HEAD                  All times    "9 25 24"
3300090182401                             Continuous HEAD                  All times    "10 25 24"
3300090182401                             Continuous HEAD                  All times    "11 25 24"
3300090182401                             Continuous HEAD                  All times    "12 25 24"
3300090182401                             Continuous HEAD                  All times    "13 25 24"
3301090305601                             Continuous HEAD                  All times    "1 26 5"
3301090305601                             Continuous HEAD                  All times    "2 26 5"
3301090305601                             Continuous HEAD                  All times    "3 26 5"
3301090305601                             Continuous HEAD                  All times    "4 26 5"
3301090305601                             Continuous HEAD                  All times    "5 26 5"
3301090305601                             Continuous HEAD                  All times    "6 26 5"
3301090305601                             Continuous HEAD                  All times    "7 26 5"
3301090305601                             Continuous HEAD                  All times    "8 26 5"
3301090305601                             Continuous HEAD                  All times    "9 26 5"
3301090305601                             Continuous HEAD                  All times    "10 26 5"
3301090305601                             Continuous HEAD                  All times    "11 26 5"
3301090305601                             Continuous HEAD                  All times    "12 26 5"
3301090305601                             Continuous HEAD                  All times    "13 26 5"
3302090222601                             Continuous HEAD                  All times    "4 26 18"
3302090222601                             Continuous HEAD                  All times    "5 26 18"
3302090222601                             Continuous HEAD                  All times    "6 26 18"
3302090222601                             Continuous HEAD                  All times    "7 26 18"
3302090222601                             Continuous HEAD                  All times    "8 26 18"
3302090222601                             Continuous HEAD                  All times    "9 26 18"
3302090222601                             Continuous HEAD                  All times    "10 26 18"
3302090222601                             Continuous HEAD                  All times    "11 26 18"
3302090222601                             Continuous HEAD                  All times    "12 26 18"
3302090222601                             Continuous HEAD                  All times    "13 26 18"
3303090152401                             Continuous HEAD                  All times    "4 25 29"
3303090152401                             Continuous HEAD                  All times    "5 25 29"
3303090152401                             Continuous HEAD                  All times    "6 25 29"
3303090152401                             Continuous HEAD                  All times    "7 25 29"
3303090152401                             Continuous HEAD                  All times    "8 25 29"
3303090152401                             Continuous HEAD                  All times    "9 25 29"
3303090152401                             Continuous HEAD                  All times    "10 25 29"
3303090152401                             Continuous HEAD                  All times    "11 25 29"
3303090152401                             Continuous HEAD                  All times    "12 25 29"
3303090152401                             Continuous HEAD                  All times    "13 25 29"
3303090320701                             Continuous HEAD                  All times    "1 26 3"
3303090320701                             Continuous HEAD                  All times    "2 26 3"
3303090320701                             Continuous HEAD                  All times    "3 26 3"
3303090320701                             Continuous HEAD                  All times    "4 26 3"
3303090320701                             Continuous HEAD                  All times    "5 26 3"
3303090320701                             Continuous HEAD                  All times    "6 26 3"
3303090320701                             Continuous HEAD                  All times    "7 26 3"
3303090320701                             Continuous HEAD                  All times    "8 26 3"
3303090320701                             Continuous HEAD                  All times    "9 26 3"
3303090320701                             Continuous HEAD                  All times    "10 26 3"
3303090320701                             Continuous HEAD                  All times    "11 26 3"
3303090320701                             Continuous HEAD                  All times    "12 26 3"
3303090320701                             Continuous HEAD                  All times    "13 26 3"
3307090315801                             Continuous HEAD                  All times    "1 26 3"
3307090315801                             Continuous HEAD                  All times    "2 26 3"
3307090315801                             Continuous HEAD                  All times    "3 26 3"
3307090315801                             Continuous HEAD                  All times    "4 26 3"
3307090315801                             Continuous HEAD                  All times    "5 26 3"
3307090315801                             Continuous HEAD                  All times    "6 26 3"
3307090315801                             Continuous HEAD                  All times    "7 26 3"
3307090315801                             Continuous HEAD                  All times    "8 26 3"
3307090315801                             Continuous HEAD                  All times    "9 26 3"
3307090315801                             Continuous HEAD                  All times    "10 26 3"
3307090315801                             Continuous HEAD                  All times    "11 26 3"
3307090315801                             Continuous HEAD                  All times    "12 26 3"
3307090315801                             Continuous HEAD                  All times    "13 26 3"
3308090181601                             Continuous HEAD                  All times    "4 25 24"
3308090181601                             Continuous HEAD                  All times    "5 25 24"
3308090181601                             Continuous HEAD                  All times    "6 25 24"
3308090181601                             Continuous HEAD                  All times    "7 25 24"
3308090181601                             Continuous HEAD                  All times    "8 25 24"
3308090181601                             Continuous HEAD                  All times    "9 25 24"
3308090181601                             Continuous HEAD                  All times    "10 25 24"
[...]
    149      4     15      9      -2495.      61670
    150      4     15     11      -2554.      61671
    151      4     15     13      -2215.      61672
    152      9     15     14      -1995.      61673
    153      4     15     16      -2876.      61674
    154     13     15     18      -1163.      61675
    155     13     15     19      -2360.      61676
    156     13     15     21      -1843.      61677
    157      4     15     22      -1972.      61678
    158     13     15     24      -274.6      61679
    159     13     15     26      -1012.      61680
    160      8     15     27      -253.1      61681
    161      8     15     32      -126.5      61684
    162      9     15     34      -126.5      61685
    163      1     13      3      -2458.      62060
    164      1     13      5      -4260.      62061
    165      1     13      6      -3199.      62062
    166      4     13      8      -2843.      62063
    167     13     13      9      -1492.      62064
    168     13     13     11      -674.2      62065
    169      4     13     13      -2378.      62066
    170     13     13     14      -2103.      62067
    171     13     13     16      -1791.      62068
    172      4     13     18      -1175.      62069
    173      4     13     19      -1788.      62070
    174      4     13     21      -3144.      62071
    175     13     13     22      -928.6      62072
    176     13     13     24      -40.37      62073
    177     13     13     27      -253.1      62075
    178     13     13     29      -885.8      62076
    179     13     13     30      -253.1      62077
    180     13     13     32      -506.2      62078
    181      1     11      3      -1111.      62454
    182      1     11      5      -3446.      62455
    183      1     11      6      -3046.      62456
    184      4     11      8      -2357.      62457
    185      4     11      9      -1141.      62458
    186      4     11     11      -2663.      62459
    187      4     11     13      -1561.      62460
    188     13     11     14      -929.1      62461
    189      4     11     16      -323.0      62462
    190     13     11     18      -161.5      62463
    191     13     11     19      -1048.      62464
    192      4     11     21      -2548.      62465
    193     13     11     22      -480.5      62466
    194     13     11     26      -126.5      62468
    195     13     11     29      -3163.      62470
    196      1     10      3      -3669.      62848
    197      1     10      5      -3566.      62849
    198      1     10      6      -1708.      62850
    199      4     10      8      -2212.      62851
    200     13     10      9      -2869.      62852
    201      4     10     11      -556.2      62853
    202     13     10     13      -1034.      62854
    203     13     10     14      -3266.      62855
    204     13     10     16      -2192.      62856
    205     13     10     18      -514.8      62857
    206     13     10     19      -458.3      62858
    207      4     10     21      -1023.      62859
    208     13     10     22      -68.64      62860
    209     13     10     24      -126.5      62861
    210     13     10     29      -253.1      62864
    211      1      8      3      -3848.      63242
    212      1      8      5      -2227.      63243
    213      1      8      6      -3518.      63244
    214     13      8      8      -1835.      63245
    215     13      8      9      -1768.      63246
    216      4      8     11      -1171.      63247
    217      4      8     13      -1613.      63248
    218      4      8     14      -1853.      63249
    219     13      8     16      -446.1      63250
    220     13      8     18      -926.6      63251
    221     13      8     19      -652.1      63252
    222     13      8     24      -253.1      63255
    223      1      7      3      -3253.      63636
    224      1      7      5      -2611.      63637
    225      1      7      6      -2202.      63638
    226      4      7      8      -1887.      63639
    227      4      7      9      -2481.      63640
    228      4      7     11      -1270.      63641
    229     13      7     13      -1441.      63642
    230     13      7     14      -446.1      63643
    231     13      7     19      -1139.      63646
    232     13      7     21      -126.5      63647
    233     13      7     22      -253.1      63648
    234      8      7     30      -126.5      63653
    235      1      5      3      -2788.      64030
    236      1      5      5      -1440.      64031
    237      1      5      6      -2170.      64032
    238     13      5      8      -3232.      64033
    239     13      5      9      -2396.      64034
    240     13      5     11      -2972.      64035
    241     13      5     13      -1505.      64036
    242     13      5     18      -413.9      64039
    243     13      5     24      -253.1      64043
    244      4      5     26      -34.32      64044
    245      4      5     27      -789.3      64045
    246     13      5     34      -379.6      64049
    247      2      3      3      -1125.      64424
    248     13      3      5      -1357.      64425
    249     13      3      6      -2364.      64426
    250     13      3      8      -1789.      64427
    251      4      3      9      -522.8      64428
    252      4      3     11      -355.3      64429
    253     13      3     13      -847.9      64430
    254      4      3     19      -1078.      64434
    255      4      3     21      -2128.      64435
    256      4      3     22      -575.3      64436
    257      4      3     26      -137.3      64438
    258      4      3     27      -1853.      64439
    259     13      3     30      -126.5      64441
    260     13      3     34      -287.4      64443
    261      1      2      3      -1262.      64818
    262      2      2      5      -1286.      64819
    263     13      2      6      -904.4      64820
    264     13      2      8      -1514.      64821
    265      4      2      9      -1163.      64822
    266     13      2     11      -730.8      64823
    267     13      2     13      -361.4      64824
    268      4      2     19      -2717.      64828
    269      4      2     21      -2993.      64829
    270      4      2     22      -892.3      64830
    271      4      2     24      -1020.      64831
    272      4      2     26      -1225.      64832
    273      4      2     27      -514.8      64833
    274     13      2     29      -308.9      64834
    275     13      2     32      -253.1      64836
    276     13      2     34      -126.5      64837
    277      9      3     23      -6446.      98320
    278     10      4     20      -565.5      98712
    279      9      4     23      -121.3      98714
    280     10      7      9      -570.1      99493
    281     10      9     28      -565.5      99899
    282     10     12     23      -565.5      100684
    283      9     12     30      -121.3      100688
    284      9     14     31      -121.3      101083
    285      9     14     33      -121.3      101084
    286      9     14     34      -242.7      101085
    287     10     15     13      -565.5      101466
    288     10     15     20      -1252.      101470
    289      9     20     23      -121.3      102654
    290     10     22      4      -570.1      103036
    291     10     22     13      -1131.      103042
    292      9     22     34      -686.9      103055
    293      7     27      4      -151.7      104218
    294      7     27      7      -106.2      104220
    295     10     27     17      -1697.      104226

 OPENED ./external/rch18.dat
 FILE TYPE:OPEN/CLOSE   UNIT 1131   STATUS:OLD
 FORMAT:FORMATTED              ACCESS:SEQUENTIAL
 ACTION:READ


 REUSING SFRS FROM LAST STRESS PERIOD

 INNER ITERATION SUMMARY
 --------------------------------------------------------------------------------------------------------------------------------
     TOTAL      OUTER     INNER                    MAXIMUM CHANGE        MAXIMUM                  MAXIMUM RESIDUAL        MAXIMUM
 ITERATION  ITERATION ITERATION                    MODEL-(CELLID)         CHANGE                    MODEL-(CELLID)       RESIDUAL
 --------------------------------------------------------------------------------------------------------------------------------
          1         1         1                     1_GWF-(1,2,3) -0.5460292E-01                   1_GWF-(11,18,8)   149.8456
          2         1         2                     1_GWF-(1,5,3) -0.1401322E-01                   1_GWF-(12,14,4)  -18.21349
          3         1         3                    1_GWF-(1,23,9)  0.2146763E-02                   1_GWF-(6,22,31)   1.415754
          4         2         1                   1_GWF-(1,27,13) -0.8927955E-04                  1_GWF-(11,26,14)  0.3175893


 INNER ITERATION SUMMARY
 --------------------------------------------------------------------------------------------------------------------------------
     TOTAL      OUTER     INNER                    MAXIMUM CHANGE        MAXIMUM                  MAXIMUM RESIDUAL        MAXIMUM
 ITERATION  ITERATION ITERATION                    MODEL-(CELLID)         CHANGE                    MODEL-(CELLID)       RESIDUAL
 --------------------------------------------------------------------------------------------------------------------------------
          1         1         1                     1_GWF-(2,1,3) -0.3427234E-01                   1_GWF-(11,20,7)   168.2107
          2         1         2                     1_GWF-(2,1,3) -0.2073440E-02                   1_GWF-(11,19,3)   21.43542
          3         1         3                     1_GWF-(2,1,3) -0.4716002E-03                   1_GWF-(6,23,30)   3.322873
          4         2         1                     1_GWF-(2,1,3) -0.3099275E-04                   1_GWF-(6,23,30)  0.8046340


 INNER ITERATION SUMMARY
 --------------------------------------------------------------------------------------------------------------------------------
     TOTAL      OUTER     INNER                    MAXIMUM CHANGE        MAXIMUM                  MAXIMUM RESIDUAL        MAXIMUM
 ITERATION  ITERATION ITERATION                    MODEL-(CELLID)         CHANGE                    MODEL-(CELLID)       RESIDUAL
 --------------------------------------------------------------------------------------------------------------------------------
          1         1         1                     1_GWF-(2,1,3) -0.5571017E-01                  1_GWF-(11,26,14)   172.8596
          2         1         2                     1_GWF-(2,1,3) -0.5539643E-02                  1_GWF-(11,27,14)  -53.70997
          3         1         3                     1_GWF-(2,1,3) -0.9362531E-03                   1_GWF-(11,19,8)   4.693617
          4         2         1                     1_GWF-(2,1,3) -0.1499778E-03                  1_GWF-(11,26,14)   1.363493


 INNER ITERATION SUMMARY
 --------------------------------------------------------------------------------------------------------------------------------
     TOTAL      OUTER     INNER                    MAXIMUM CHANGE        MAXIMUM                  MAXIMUM RESIDUAL        MAXIMUM
 ITERATION  ITERATION ITERATION                    MODEL-(CELLID)         CHANGE                    MODEL-(CELLID)       RESIDUAL
 --------------------------------------------------------------------------------------------------------------------------------
          1         1         1                     1_GWF-(2,1,3) -0.7967383E-01                  1_GWF-(11,26,14)   209.8816
          2         1         2                     1_GWF-(2,1,3) -0.1794631E-01                  1_GWF-(11,26,15)  -115.7501
          3         1         3                     1_GWF-(2,1,3) -0.3460860E-02                  1_GWF-(11,26,13)  -16.79887
          4         1         4                     1_GWF-(2,1,3) -0.5583880E-03                  1_GWF-(11,26,15)  -16.26303
          5         2         1                     1_GWF-(2,1,3)  0.7582385E-04                   1_GWF-(11,20,7)  -2.866568


 INNER ITERATION SUMMARY
 --------------------------------------------------------------------------------------------------------------------------------
     TOTAL      OUTER     INNER                    MAXIMUM CHANGE        MAXIMUM                  MAXIMUM RESIDUAL        MAXIMUM
 ITERATION  ITERATION ITERATION                    MODEL-(CELLID)         CHANGE                    MODEL-(CELLID)       RESIDUAL
 --------------------------------------------------------------------------------------------------------------------------------
          1         1         1                     1_GWF-(2,1,3) -0.1053589                      1_GWF-(11,26,14)   248.9376
          2         1         2                     1_GWF-(2,1,3) -0.4628497E-01                  1_GWF-(11,26,15)  -201.7414
          3         1         3                     1_GWF-(2,1,3) -0.1059140E-01                  1_GWF-(11,26,13)  -68.01970
          4         1         4                     1_GWF-(2,1,3)  0.1375329E-03                   1_GWF-(6,24,32)   8.302837
          5         1         5                     1_GWF-(2,1,3) -0.3445296E-03                    1_GWF-(6,3,33)   3.405577
          6         2         1                     1_GWF-(2,1,3)  0.2268746E-03                   1_GWF-(6,23,32)   1.695132

 UBDSV1 SAVING           STO-SS ON UNIT   1111 AT TIME STEP      5, STRESS PERIOD     19
 UBDSV1 SAVING           STO-SY ON UNIT   1111 AT TIME STEP      5, STRESS PERIOD     19
 UBDSV1 SAVING     FLOW-JA-FACE ON UNIT   1111 AT TIME STEP      5, STRESS PERIOD     19
 UBDSV06 SAVING              WEL IN MODEL SHELLMOUND       PACKAGE SHELLMOUND      CONNECTED TO MODEL SHELLMOUND       PACKAGE WEL_0            ON UNIT   1111 AT TIME STEP      5, STRESS PERIOD     19
 UBDSV06 SAVING              RCH IN MODEL SHELLMOUND       PACKAGE SHELLMOUND      CONNECTED TO MODEL SHELLMOUND       PACKAGE RCHA             ON UNIT   1111 AT TIME STEP      5, STRESS PERIOD     19
 UBDSV06 SAVING              SFR IN MODEL SHELLMOUND       PACKAGE SHELLMOUND      CONNECTED TO MODEL SHELLMOUND       PACKAGE SFR_0            ON UNIT   1111 AT TIME STEP      5, STRESS PERIOD     19
 UBDSV06 SAVING     FLOW-JA-FACE IN MODEL SHELLMOUND       PACKAGE SFR_0           CONNECTED TO MODEL SHELLMOUND       PACKAGE SFR_0            ON UNIT   1042 AT TIME STEP      5, STRESS PERIOD     19
 UBDSV06 SAVING              GWF IN MODEL SHELLMOUND       PACKAGE SFR_0           CONNECTED TO MODEL SHELLMOUND       PACKAGE SHELLMOUND       ON UNIT   1042 AT TIME STEP      5, STRESS PERIOD     19
 UBDSV06 SAVING       EXT-INFLOW IN MODEL SHELLMOUND       PACKAGE SFR_0           CONNECTED TO MODEL SHELLMOUND       PACKAGE SFR_0            ON UNIT   1042 AT TIME STEP      5, STRESS PERIOD     19
 UBDSV06 SAVING         RAINFALL IN MODEL SHELLMOUND       PACKAGE SFR_0           CONNECTED TO MODEL SHELLMOUND       PACKAGE SFR_0            ON UNIT   1042 AT TIME STEP      5, STRESS PERIOD     19
 UBDSV06 SAVING           RUNOFF IN MODEL SHELLMOUND       PACKAGE SFR_0           CONNECTED TO MODEL SHELLMOUND       PACKAGE SFR_0            ON UNIT   1042 AT TIME STEP      5, STRESS PERIOD     19
 UBDSV06 SAVING      EVAPORATION IN MODEL SHELLMOUND       PACKAGE SFR_0           CONNECTED TO MODEL SHELLMOUND       PACKAGE SFR_0            ON UNIT   1042 AT TIME STEP      5, STRESS PERIOD     19
 UBDSV06 SAVING      EXT-OUTFLOW IN MODEL SHELLMOUND       PACKAGE SFR_0           CONNECTED TO MODEL SHELLMOUND       PACKAGE SFR_0            ON UNIT   1042 AT TIME STEP      5, STRESS PERIOD     19

 HEAD WILL BE SAVED ON UNIT 1112 AT END OF TIME STEP    5, STRESS PERIOD   19


  SFR_0 BUDGET FOR ENTIRE MODEL AT END OF TIME STEP    5, STRESS PERIOD  19
  ------------------------------------------------------------------------------

     CUMULATIVE SFR_0      L**3       RATES FOR THIS TIME STEP      L**3/T
     ------------------                 ------------------------

           IN:                                      IN:
           ---                                      ---
          EXT-INFLOW =           0.0000            EXT-INFLOW =           0.0000
            RAINFALL =           0.0000              RAINFALL =           0.0000
              RUNOFF =           0.0000                RUNOFF =           0.0000
                 GWF =    11696387.3244                   GWF =           0.0000
         EVAPORATION =           0.0000           EVAPORATION =           0.0000
         EXT-OUTFLOW =           0.0000           EXT-OUTFLOW =           0.0000

            TOTAL IN =    11696387.3244              TOTAL IN =           0.0000

          OUT:                                     OUT:
          ----                                     ----
          EXT-INFLOW =           0.0000            EXT-INFLOW =           0.0000
            RAINFALL =           0.0000              RAINFALL =           0.0000
              RUNOFF =           0.0000                RUNOFF =           0.0000
                 GWF =     1829004.3948                   GWF =           0.0000
         EVAPORATION =           0.0000           EVAPORATION =           0.0000
         EXT-OUTFLOW =     9867382.9296           EXT-OUTFLOW =           0.0000

           TOTAL OUT =    11696387.3244             TOTAL OUT =           0.0000

            IN - OUT =      -1.8626E-09              IN - OUT =           0.0000

 PERCENT DISCREPANCY =          -0.00     PERCENT DISCREPANCY =           0.00



  VOLUME BUDGET FOR ENTIRE MODEL AT END OF TIME STEP    5, STRESS PERIOD  19
  ---------------------------------------------------------------------------------------------------

     CUMULATIVE VOLUME      L**3       RATES FOR THIS TIME STEP      L**3/T          PACKAGE NAME
     ------------------                 ------------------------                     ----------------

           IN:                                      IN:
           ---                                      ---
              STO-SS =     6843430.6163                STO-SS =        1318.8736     STORAGE
              STO-SY =  2534975184.9658                STO-SY =      489226.8111     STORAGE
                 WEL =           0.0000                   WEL =           0.0000     WEL_0
                 RCH =   331865479.2823                   RCH =       37549.4507     RCHA
                 SFR =     2454023.9663                   SFR =           0.0000     SFR_0

            TOTAL IN =  2876138118.8307              TOTAL IN =      528095.1354

          OUT:                                     OUT:
          ----                                     ----
              STO-SS =      560394.0964                STO-SS =           0.0000     STORAGE
              STO-SY =   191630758.8468                STO-SY =           0.0000     STORAGE
                 WEL =  2675688426.6535                   WEL =      528817.1966     WEL_0
                 RCH =           0.0000                   RCH =           0.0000     RCHA
                 SFR =    11080224.3709                   SFR =           0.0000     SFR_0

           TOTAL OUT =  2878959803.9677             TOTAL OUT =      528817.1966

            IN - OUT =    -2821685.1369              IN - OUT =        -722.0612

 PERCENT DISCREPANCY =          -0.10     PERCENT DISCREPANCY =          -0.14




         TIME SUMMARY AT END OF TIME STEP    5 IN STRESS PERIOD   19
                    SECONDS     MINUTES      HOURS       DAYS        YEARS
                    -----------------------------------------------------------
   TIME STEP LENGTH 6.06970E+06 1.01162E+05  1686.0      70.251     0.19234
 STRESS PERIOD TIME 1.58112E+07 2.63520E+05  4392.0      183.00     0.50103
         TOTAL TIME 5.52355E+08 9.20592E+06 1.53432E+05  6393.0      17.503
