                                  MODFLOW-NWT-SWR1 
      U.S. GEOLOGICAL SURVEY MODULAR FINITE-DIFFERENCE GROUNDWATER-FLOW MODEL
                             VERSION 1.1.4 4/01/2018
                    BASED ON MODFLOW-2005 VERSION 1.12.00 02/03/2017

 LIST FILE: pleasant.list
                         UNIT    2

 OPENING pleasant.dis
 FILE TYPE:DIS   UNIT   11   STATUS:OLD    
 FORMAT:FORMATTED              ACCESS:SEQUENTIAL          

 OPENING pleasant.bas
 FILE TYPE:BAS6   UNIT   13   STATUS:OLD    
 FORMAT:FORMATTED              ACCESS:SEQUENTIAL          

 OPENING pleasant.upw
 FILE TYPE:UPW   UNIT   31   STATUS:OLD    
 FORMAT:FORMATTED              ACCESS:SEQUENTIAL          

 OPENING pleasant.rch
 FILE TYPE:RCH   UNIT   19   STATUS:OLD    
 FORMAT:FORMATTED              ACCESS:SEQUENTIAL          

 OPENING pleasant.oc
 FILE TYPE:OC   UNIT   14   STATUS:OLD    
 FORMAT:FORMATTED              ACCESS:SEQUENTIAL          

 OPENING pleasant.sfr
 FILE TYPE:SFR   UNIT   17   STATUS:OLD    
 FORMAT:FORMATTED              ACCESS:SEQUENTIAL          

 OPENING pleasant.wel
 FILE TYPE:WEL   UNIT   20   STATUS:OLD    
 FORMAT:FORMATTED              ACCESS:SEQUENTIAL          

 OPENING pleasant.nwt
 FILE TYPE:NWT   UNIT   32   STATUS:OLD    
 FORMAT:FORMATTED              ACCESS:SEQUENTIAL          

 OPENING pleasant.chd
 FILE TYPE:CHD   UNIT   24   STATUS:OLD    
 FORMAT:FORMATTED              ACCESS:SEQUENTIAL          

 OPENING pleasant.cbc
 FILE TYPE:DATA(BINARY)   UNIT   53   STATUS:REPLACE
 FORMAT:UNFORMATTED            ACCESS:STREAM              

 OPENING pleasant.hds
 FILE TYPE:DATA(BINARY)   UNIT   51   STATUS:REPLACE
 FORMAT:UNFORMATTED            ACCESS:STREAM              

 OPENING pleasant.sfr.out
 FILE TYPE:DATA   UNIT  223   STATUS:UNKNOWN
 FORMAT:FORMATTED              ACCESS:SEQUENTIAL          

 BAS -- BASIC PACKAGE, VERSION 1.1.4, 4/01/2018 INPUT READ FROM UNIT   13

 MODFLOW was compiled using mixed precision
 Precision of REAL variables:           6
 Precision of DOUBLE PRECISION variables:          15

 DISCRETIZATION INPUT DATA READ FROM UNIT   11
 # DIS package for  MODFLOW-NWT, generated by Flopy.
    4 LAYERS        34 ROWS        36 COLUMNS
   13 STRESS PERIOD(S) IN SIMULATION
 MODEL TIME UNIT IS DAYS
 MODEL LENGTH UNIT IS METERS
  Confining bed flag for each layer:
   0   0   0   0

 OPENING FILE ON UNIT   99:
 external/delr.ref                                                                                                                                                                                       



                               DELR
 READING ON UNIT   99 WITH FORMAT: (36E15.6)           

 OPENING FILE ON UNIT   99:
 external/delc.ref                                                                                                                                                                                       



                               DELC
 READING ON UNIT   99 WITH FORMAT: (34E15.6)           

 OPENING FILE ON UNIT   99:
 external/top.dat                                                                                                                                                                                        



           TOP ELEVATION OF LAYER 1
 READING ON UNIT   99 WITH FORMAT: (FREE)              

 OPENING FILE ON UNIT   99:
 external/botm0.dat                                                                                                                                                                                      



             MODEL LAYER BOTTOM EL. FOR LAYER   1
 READING ON UNIT   99 WITH FORMAT: (FREE)              

 OPENING FILE ON UNIT   99:
 external/botm1.dat                                                                                                                                                                                      



             MODEL LAYER BOTTOM EL. FOR LAYER   2
 READING ON UNIT   99 WITH FORMAT: (FREE)              

 OPENING FILE ON UNIT   99:
 external/botm2.dat                                                                                                                                                                                      



             MODEL LAYER BOTTOM EL. FOR LAYER   3
 READING ON UNIT   99 WITH FORMAT: (FREE)              

 OPENING FILE ON UNIT   99:
 external/botm3.dat                                                                                                                                                                                      



             MODEL LAYER BOTTOM EL. FOR LAYER   4
 READING ON UNIT   99 WITH FORMAT: (FREE)              


 STRESS PERIOD     LENGTH       TIME STEPS     MULTIPLIER FOR DELT    SS FLAG
 ----------------------------------------------------------------------------
        1         1.000000          1                    1.000         SS
        2         31.00000          5                    1.500         TR
        3         29.00000          5                    1.500         TR
        4         31.00000          5                    1.500         TR
        5         30.00000          5                    1.500         TR
        6         31.00000          5                    1.500         TR
        7         30.00000          5                    1.500         TR
        8         31.00000          5                    1.500         TR
        9         31.00000          5                    1.500         TR
       10         30.00000          5                    1.500         TR
       11         31.00000          5                    1.500         TR
       12         30.00000          5                    1.500         TR
       13         31.00000          5                    1.500         TR

 COMBINED STEADY-STATE AND TRANSIENT SIMULATION




 # BAS6 package for  MODFLOW-NWT, generated by Flopy.                            
 THE FREE FORMAT OPTION HAS BEEN SELECTED

 OPENING FILE ON UNIT   99:
 external/ibound0.dat                                                                                                                                                                                    



                     BOUNDARY ARRAY FOR LAYER   1
 READING ON UNIT   99 WITH FORMAT: (FREE)              

 OPENING FILE ON UNIT   99:
 external/ibound1.dat                                                                                                                                                                                    



                     BOUNDARY ARRAY FOR LAYER   2
 READING ON UNIT   99 WITH FORMAT: (FREE)              

 OPENING FILE ON UNIT   99:
 external/ibound2.dat                                                                                                                                                                                    



                     BOUNDARY ARRAY FOR LAYER   3
 READING ON UNIT   99 WITH FORMAT: (FREE)              

 OPENING FILE ON UNIT   99:
 external/ibound3.dat                                                                                                                                                                                    



                     BOUNDARY ARRAY FOR LAYER   4
 READING ON UNIT   99 WITH FORMAT: (FREE)              

 AQUIFER HEAD WILL BE SET TO  -9999.0     AT ALL NO-FLOW NODES (IBOUND=0).

 OPENING FILE ON UNIT   99:
 external/strt0.dat                                                                                                                                                                                      



                       INITIAL HEAD FOR LAYER   1
 READING ON UNIT   99 WITH FORMAT: (FREE)              

 OPENING FILE ON UNIT   99:
 external/strt1.dat                                                                                                                                                                                      



                       INITIAL HEAD FOR LAYER   2
 READING ON UNIT   99 WITH FORMAT: (FREE)              

 OPENING FILE ON UNIT   99:
 external/strt2.dat                                                                                                                                                                                      



                       INITIAL HEAD FOR LAYER   3
 READING ON UNIT   99 WITH FORMAT: (FREE)              

 OPENING FILE ON UNIT   99:
 external/strt3.dat                                                                                                                                                                                      



                       INITIAL HEAD FOR LAYER   4
 READING ON UNIT   99 WITH FORMAT: (FREE)              
 # OC package for  MODFLOW-NWT, generated by Flopy.

 OUTPUT CONTROL IS SPECIFIED ONLY AT TIME STEPS FOR WHICH OUTPUT IS DESIRED
 COMPACT CELL-BY-CELL BUDGET FILES WILL BE WRITTEN
 AUXILIARY DATA WILL BE SAVED IN CELL-BY-CELL BUDGET FILES
 HEAD PRINT FORMAT CODE IS   0    DRAWDOWN PRINT FORMAT CODE IS   0
 HEADS WILL BE SAVED ON UNIT   51    DRAWDOWNS WILL BE SAVED ON UNIT    0
 # NWT package for  MODFLOW-NWT, generated by Flopy.

 NWT1 -- Newton Solver, VERSION 1.1.4, 4/01/2018
         INPUT READ FROM UNIT 32

 SPECIFIED OPTION:
 SOLVER INPUT VALUES ARE SPECIFIED BY USER
 ***XMD linear solver will be used***

   CONVERGENCE CRITERION OF   0.100000E-01 FOR HEAD SOLUTION
   AND A TOLERANCE OF   0.600000E+04 FOR FLOW SOLUTION AND 
   A MAXIMUM OF  1000 OUTER ITERATIONS. 


   D-B-D REDUCTION FACTOR OF    0.900000E+00 AND 
   A D-B-D INCREASE FACTOR OF    0.100000E-04 AND 
   A D-B-D RELAXATION OF    0.000000E+00 AND 
   A MOMENTUM FACTOR OF    0.000000E+00 .


 ***BACKTRACKING IS INACTIVE***
 XMD -- LINEAR SOLUTION BY XMD PACKAGE VERSION 1.30
     BY MOTOMU IBARAKI, OHIO STATE UNIVERSITY, COLOMBUS, OH
                 INPUT READ FROM UNIT 32
 ACCELERATION METHOD                    (IACL) =         2
 NODE ORDERING FLAG                   (NORDER) =         0
 LEVEL OF FILL                         (LEVEL) =         7
 MAXIMUM NUMBER OF ORTHOGONALIZATIONS  (NORTH) =         7
 INDEX FOR USING REDUCED SYSTEM      (IREDSYS) =         0
 RESID. REDUCTION CONVERGE CRITERION  (RRCTOL) =  0.000000E+00
 INDEX FOR USING DROP TOLERANCE     (IDROPTOL) =         1
 DROP TOLERANCE VALUE                  (EPSRN) =  0.100000E-01
 CONVERGENCE CRITERIA OF           (HCLOSEXMD) =  0.100000E-03
 MAX. NUMBER OF LINEAR ITERATIONS  (MXITERXMD) =        85


 UPW1 -- UPSTREAM WEIGHTING FLOW PACKAGE, VERSION 1.1.4, 4/01/2018
         INPUT READ FROM UNIT 31

 # UPW package for  MODFLOW-NWT, generated by Flopy.
 CELL-BY-CELL FLOWS WILL BE SAVED ON UNIT   53
 No named parameters

   LAYER FLAGS:
 LAYER       LAYTYP          LAYAVG    CHANI           LAYVKA           LAYWET
 ---------------------------------------------------------------------------
    1             1             0     1.000E+00             0             0
    2             1             0     1.000E+00             0             0
    3             1             0     1.000E+00             0             0
    4             1             0     1.000E+00             0             0

   INTERPRETATION OF LAYER FLAGS:
                        INTERBLOCK     HORIZONTAL    DATA IN
         LAYER TYPE   TRANSMISSIVITY   ANISOTROPY   ARRAY VKA   WETTABILITY
 LAYER   (LAYTYP)        (LAYAVG)      (CHANI)     (LAYVKA)       (LAYWET)
 ---------------------------------------------------------------------------
    1   CONVERTIBLE      HARMONIC     1.000E+00    VERTICAL K  NON-WETTABLE
    2   CONVERTIBLE      HARMONIC     1.000E+00    VERTICAL K  NON-WETTABLE
    3   CONVERTIBLE      HARMONIC     1.000E+00    VERTICAL K  NON-WETTABLE
    4   CONVERTIBLE      HARMONIC     1.000E+00    VERTICAL K  NON-WETTABLE

 OPENING FILE ON UNIT   99:
 external/hk0.dat                                                                                                                                                                                        



              HYD. COND. ALONG ROWS FOR LAYER   1
 READING ON UNIT   99 WITH FORMAT: (FREE)              

 OPENING FILE ON UNIT   99:
 external/vka0.dat                                                                                                                                                                                       



                VERTICAL HYD. COND. FOR LAYER   1
 READING ON UNIT   99 WITH FORMAT: (FREE)              

 OPENING FILE ON UNIT   99:
 external/ss0.dat                                                                                                                                                                                        



                   SPECIFIC STORAGE FOR LAYER   1
 READING ON UNIT   99 WITH FORMAT: (FREE)              

 OPENING FILE ON UNIT   99:
 external/sy0.dat                                                                                                                                                                                        



                     SPECIFIC YIELD FOR LAYER   1
 READING ON UNIT   99 WITH FORMAT: (FREE)              

 OPENING FILE ON UNIT   99:
 external/hk1.dat                                                                                                                                                                                        



              HYD. COND. ALONG ROWS FOR LAYER   2
 READING ON UNIT   99 WITH FORMAT: (FREE)              

 OPENING FILE ON UNIT   99:
 external/vka1.dat                                                                                                                                                                                       



                VERTICAL HYD. COND. FOR LAYER   2
 READING ON UNIT   99 WITH FORMAT: (FREE)              

 OPENING FILE ON UNIT   99:
 external/ss1.dat                                                                                                                                                                                        



                   SPECIFIC STORAGE FOR LAYER   2
 READING ON UNIT   99 WITH FORMAT: (FREE)              

 OPENING FILE ON UNIT   99:
 external/sy1.dat                                                                                                                                                                                        



                     SPECIFIC YIELD FOR LAYER   2
 READING ON UNIT   99 WITH FORMAT: (FREE)              

 OPENING FILE ON UNIT   99:
 external/hk2.dat                                                                                                                                                                                        



              HYD. COND. ALONG ROWS FOR LAYER   3
 READING ON UNIT   99 WITH FORMAT: (FREE)              

 OPENING FILE ON UNIT   99:
 external/vka2.dat                                                                                                                                                                                       



                VERTICAL HYD. COND. FOR LAYER   3
 READING ON UNIT   99 WITH FORMAT: (FREE)              

 OPENING FILE ON UNIT   99:
 external/ss2.dat                                                                                                                                                                                        



                   SPECIFIC STORAGE FOR LAYER   3
 READING ON UNIT   99 WITH FORMAT: (FREE)              

 OPENING FILE ON UNIT   99:
 external/sy2.dat                                                                                                                                                                                        



                     SPECIFIC YIELD FOR LAYER   3
 READING ON UNIT   99 WITH FORMAT: (FREE)              

 OPENING FILE ON UNIT   99:
 external/hk3.dat                                                                                                                                                                                        



              HYD. COND. ALONG ROWS FOR LAYER   4
 READING ON UNIT   99 WITH FORMAT: (FREE)              

 OPENING FILE ON UNIT   99:
 external/vka3.dat                                                                                                                                                                                       



                VERTICAL HYD. COND. FOR LAYER   4
 READING ON UNIT   99 WITH FORMAT: (FREE)              

 OPENING FILE ON UNIT   99:
 external/ss3.dat                                                                                                                                                                                        



                   SPECIFIC STORAGE FOR LAYER   4
 READING ON UNIT   99 WITH FORMAT: (FREE)              

 OPENING FILE ON UNIT   99:
 external/sy3.dat                                                                                                                                                                                        



                     SPECIFIC YIELD FOR LAYER   4
 READING ON UNIT   99 WITH FORMAT: (FREE)              

 WEL -- WELL PACKAGE FOR NWT VERSION 1.1.4,  4/01/2018 INPUT READ FROM UNIT   20
 # WEL package for  MODFLOW-NWT, generated by Flopy.
 No named parameters
 MAXIMUM OF     11 ACTIVE WELLS AT ONE TIME
 CELL-BY-CELL FLOWS WILL BE SAVED ON UNIT   53
 No named parameters
  PHIRAMP WILL BE SET TO A DEFAULT VALUE OF 1.0E-5
  WELLS WITH REDUCED PUMPING WILL BE REPORTED TO THE MAIN LISTING FILE


     0 Well parameters

 RCH -- RECHARGE PACKAGE, VERSION 7, 5/2/2005 INPUT READ FROM UNIT   19
 # RCH package for  MODFLOW-NWT, generated by Flopy.
 No named parameters
 OPTION 3 -- RECHARGE TO HIGHEST ACTIVE NODE IN EACH VERTICAL COLUMN
 CELL-BY-CELL FLOWS WILL BE SAVED ON UNIT   53


     0 Recharge parameters

 CHD -- TIME-VARIANT SPECIFIED-HEAD OPTION, VERSION 7, 5/2/2005
 INPUT READ FROM UNIT   24
 # CHD package for  MODFLOW-NWT, generated by Flopy.
 No named parameters
 MAXIMUM OF    544 TIME-VARIANT SPECIFIED-HEAD CELLS AT ONE TIME


     0 TIME-VARIANT SPECIFIED-HEAD PARAMETERS

 SFR7 -- STREAMFLOW ROUTING PACKAGE, VERSION 1.0.5, 2012-04-05
         INPUT READ FROM UNIT  17
 # SFR package for  MODFLOW-NWT, generated by Flopy.
 No named parameters


 NUMBER OF STREAM REACHES IS   42

 NUMBER OF STREAM SEGMENTS IS    2

 NUMBER OF STREAM PARAMETERS IS    0

 NUMBER OF STREAM SEGMENTS DEFINED USING PARAMETERS IS              0

 MAXIMUM ERROR FOR STREAM LEAKAGE RATES IS  1.00E-04

 CONSTANT FOR MANNINGS EQUATION IS  8.6400E+04





 USING DATA INPUT MODIFIED FROM ORIGINAL SFR PROGRAM FOR FARM PACKAGE

 STREAM OUTPUT WILL BE WRITTEN TO FILE ON UNIT  223


   STREAM NETWORK DESCRIPTION: 

   LAYER    ROW    COL   SEGMENT   REACH     LENGTH     STREAMBED     STREAMBED   STREAMBED     STREAMBED
                          NUMBER   NUMBER    IN CELL    TOP ELEV.       SLOPE     THICKNESS   HYDR. CONDUCT.        
   ---------------------------------------------------------------------------------------------------------
       1     17     23       1        1    3.7851E+01   2.9658E+02   1.8526E-02   1.0000E+00   1.0000E+00
       1     16     23       1        2    6.1819E+01   2.9658E+02   3.1852E-02   1.0000E+00   1.0000E+00
       1     16     24       1        3    2.1805E+02   2.9658E+02   1.4767E-02   1.0000E+00   1.0000E+00
       1     16     25       1        4    2.3963E+02   2.9590E+02   1.3233E-02   1.0000E+00   1.0000E+00
       1     16     26       1        5    2.1110E+02   2.9484E+02   1.3426E-02   1.0000E+00   1.0000E+00
       1     16     27       1        6    1.9173E+02   2.9390E+02   7.5448E-03   1.0000E+00   1.0000E+00
       1     17     27       1        7    1.3876E+01   2.9387E+02   1.1823E-01   1.0000E+00   1.0000E+00
       1     17     28       1        8    2.1931E+02   2.9275E+02   1.3542E-02   1.0000E+00   1.0000E+00
       1     17     29       1        9    2.0281E+02   2.9168E+02   1.4025E-02   1.0000E+00   1.0000E+00
       1     17     30       1       10    2.0148E+02   2.9061E+02   1.4225E-02   1.0000E+00   1.0000E+00
       1     17     31       1       11    2.0590E+02   2.8926E+02   1.4007E-02   1.0000E+00   1.0000E+00
       1     17     32       1       12    2.0402E+02   2.8779E+02   1.0025E-02   1.0000E+00   1.0000E+00
       1     17     33       1       13    8.6696E+01   2.8699E+02   1.7609E-02   1.0000E+00   1.0000E+00
       1     16     33       1       14    1.3029E+02   2.8617E+02   1.8768E-02   1.0000E+00   1.0000E+00
       1     16     34       1       15    2.1727E+02   2.8472E+02   1.3799E-02   1.0000E+00   1.0000E+00
       1     16     35       1       16    2.0886E+02   2.8341E+02   1.5299E-02   1.0000E+00   1.0000E+00
       1     16     36       1       17    2.4530E+02   2.8217E+02   1.0000E-03   1.0000E+00   1.0000E+00
       3     24     21       2        1    7.0648E+01   2.9018E+02   6.8424E-03   1.0000E+00   1.0000E+00
       4     25     21       2        2    5.5786E+01   2.9018E+02   1.9184E-02   1.0000E+00   1.0000E+00
       4     25     22       2        3    2.2413E+02   2.9018E+02   7.3029E-03   1.0000E+00   1.0000E+00
       4     26     22       2        4    2.0397E+02   2.9018E+02   6.5026E-03   1.0000E+00   1.0000E+00
       4     27     22       2        5    1.4293E+02   2.9018E+02   5.6999E-03   1.0000E+00   1.0000E+00
       4     27     23       2        6    7.0154E+01   2.9018E+02   1.7470E-02   1.0000E+00   1.0000E+00
       4     28     23       2        7    2.5040E+02   2.9018E+02   6.3928E-03   1.0000E+00   1.0000E+00
       4     28     24       2        8    1.6828E+02   2.9018E+02   5.2911E-03   1.0000E+00   1.0000E+00
       4     29     24       2        9    6.4600E+01   2.9018E+02   1.4886E-02   1.0000E+00   1.0000E+00
       4     29     25       2       10    1.8691E+02   2.8929E+02   1.0067E-02   1.0000E+00   1.0000E+00
       3     30     25       2       11    3.0524E+02   2.8865E+02   6.3470E-03   1.0000E+00   1.0000E+00
       2     30     26       2       12    2.0147E+02   2.8820E+02   8.0813E-03   1.0000E+00   1.0000E+00
       2     30     27       2       13    2.2437E+02   2.8764E+02   7.4131E-03   1.0000E+00   1.0000E+00
       2     30     28       2       14    2.1066E+02   2.8721E+02   7.8902E-03   1.0000E+00   1.0000E+00
       2     30     29       2       15    2.2408E+02   2.8675E+02   4.6215E-03   1.0000E+00   1.0000E+00
       2     31     29       2       16    4.6778E+01   2.8663E+02   2.3220E-02   1.0000E+00   1.0000E+00
       1     31     30       2       17    2.3732E+02   2.8608E+02   5.1168E-03   1.0000E+00   1.0000E+00
       1     31     31       2       18    8.0287E+01   2.8591E+02   1.0471E-02   1.0000E+00   1.0000E+00
       1     32     31       2       19    1.3960E+02   2.8559E+02   9.3441E-03   1.0000E+00   1.0000E+00
       1     32     32       2       20    2.0158E+02   2.8515E+02   7.6637E-03   1.0000E+00   1.0000E+00
       1     32     33       2       21    2.0248E+02   2.8467E+02   5.5191E-03   1.0000E+00   1.0000E+00
       1     32     34       2       22    8.9800E+01   2.8452E+02   9.8147E-03   1.0000E+00   1.0000E+00
       1     31     34       2       23    1.4072E+02   2.8417E+02   9.5159E-03   1.0000E+00   1.0000E+00
       1     31     35       2       24    2.0952E+02   2.8365E+02   7.6229E-03   1.0000E+00   1.0000E+00
       1     31     36       2       25    2.0821E+02   2.8330E+02   1.0000E-03   1.0000E+00   1.0000E+00



1
                            STRESS PERIOD NO.    1, LENGTH =   1.000000    
                            -----------------------------------------------

                              NUMBER OF TIME STEPS =     1

                               MULTIPLIER FOR DELT =     1.000

                            INITIAL TIME STEP SIZE =   1.000000    

 OPENING FILE ON UNIT   99:
 external/WEL_0000.dat                                                                                                                                                                                   

 WELL NO.  LAYER   ROW   COL   STRESS RATE         
 --------------------------------------------------
      1      3     10      3      -409.9    
      2      3     14      3      -396.9    
      3      4     14     29      -878.7    
      4      4     18      3       0.000    
      5      4     14     15       0.000    
      6      4     34     14      -134.7    
      7      4     13     24       0.000    
      8      4      1      5      -197.2    
      9      4     25     28      -48.92    
     10      4      6      3      -400.1    
     11      4      4      5      -248.6    

     11 WELLS

 OPENING FILE ON UNIT   99:
 external/finf0.dat                                                                                                                                                                                      



                           RECHARGE
 READING ON UNIT   99 WITH FORMAT: (FREE)              

 OPENING FILE ON UNIT   99:
 external/CHD_0000.dat                                                                                                                                                                                   

 CHD NO.   LAYER   ROW   COL    START HEAD        END HEAD         
 ------------------------------------------------------------------
      1      1      1      1       315.8           315.8    
      2      1      1      2       315.7           315.7    
      3      1      1      3       315.5           315.5    
      4      1      1      4       315.4           315.4    
      5      1      1      5       315.2           315.2    
      6      1      1      6       314.9           314.9    
      7      1      1      7       314.6           314.6    
      8      1      1      8       314.3           314.3    
      9      1      1      9       313.9           313.9    
     10      1      1     10       313.6           313.6    
     11      1      1     11       313.3           313.3    
     12      1      1     12       313.0           313.0    
     13      1      1     13       312.6           312.6    
     14      1      1     14       312.2           312.2    
     15      1      1     15       311.7           311.7    
     16      1      1     16       311.3           311.3    
     17      1      1     17       310.8           310.8    
     18      1      1     18       310.2           310.2    
     19      1      1     19       309.6           309.6    
     20      1      1     20       308.9           308.9    
     21      1      1     21       308.3           308.3    
     22      1      1     22       307.6           307.6    
     23      1      1     23       306.9           306.9    
     24      1      1     24       306.2           306.2    
     25      1      1     25       305.3           305.3    
     26      1      1     26       304.7           304.7    
     27      1      1     27       303.9           303.9    
     28      1      1     28       303.2           303.2    
     29      1      1     29       302.5           302.5    
     30      1      1     30       301.8           301.8    
     31      1      1     31       301.1           301.1    
     32      1      1     32       300.5           300.5    
     33      1      1     33       299.9           299.9    
     34      1      1     34       299.1           299.1    
     35      1      1     35       298.5           298.5    
     36      1      1     36       297.8           297.8    
     37      1      2      1       315.6           315.6    
     38      1      3      1       315.5           315.5    
     39      1      4      1       315.4           315.4    
     40      1      5      1       315.2           315.2    
     41      1      6      1       315.0           315.0    
     42      1      7      1       314.9           314.9    
     43      1      8      1       314.7           314.7    
     44      1      9      1       314.5           314.5    
     45      1     10      1       314.4           314.4    
     46      1     11      1       314.2           314.2    
     47      1     12      1       314.0           314.0    
     48      1     13      1       313.8           313.8    
     49      1     14      1       313.6           313.6    
     50      1     15      1       313.4           313.4    
     51      1     16      1       313.1           313.1    
     52      1     17      1       312.9           312.9    
     53      1     18      1       312.7           312.7    
     54      1     19      1       312.4           312.4    
     55      1     20      1       312.1           312.1    
     56      1     21      1       311.8           311.8    
     57      1     22      1       311.4           311.4    
     58      1     23      1       311.1           311.1    
     59      1     24      1       310.9           310.9    
     60      1     25      1       310.7           310.7    
     61      1     26      1       310.1           310.1    
     62      1     27      1       309.7           309.7    
     63      1     28      1       309.2           309.2    
     64      1     29      1       308.8           308.8    
     65      1     30      1       308.3           308.3    
     66      1     31      1       307.9           307.9    
     67      1     32      1       307.4           307.4    
     68      1     33      1       307.0           307.0    
     69      1      2     36       297.1           297.1    
     70      1      3     36       296.5           296.5    
     71      1      4     36       296.0           296.0    
     72      1      5     36       295.4           295.4    
     73      1      6     36       294.8           294.8    
     74      1      7     36       294.2           294.2    
     75      1      8     36       293.5           293.5    
     76      1      9     36       292.6           292.6    
     77      1     10     36       291.7           291.7    
     78      1     11     36       290.8           290.8    
     79      1     12     36       289.9           289.9    
     80      1     13     36       289.0           289.0    
     81      1     14     36       288.1           288.1    
     82      1     15     36       286.9           286.9    
     83      1     16     36       285.6           285.6    
     84      1     17     36       285.7           285.7    
     85      1     18     36       285.7           285.7    
     86      1     19     36       285.8           285.8    
     87      1     20     36       285.9           285.9    
     88      1     21     36       286.0           286.0    
     89      1     22     36       286.0           286.0    
     90      1     23     36       285.9           285.9    
     91      1     24     36       285.7           285.7    
     92      1     25     36       285.4           285.4    
     93      1     26     36       285.1           285.1    
     94      1     27     36       284.8           284.8    
     95      1     28     36       284.5           284.5    
     96      1     29     36       284.3           284.3    
     97      1     30     36       283.9           283.9    
     98      1     31     36       283.6           283.6    
     99      1     32     36       283.3           283.3    
    100      1     33     36       282.8           282.8    
    101      1     34      1       306.5           306.5    
    102      1     34      2       306.2           306.2    
    103      1     34      3       305.8           305.8    
    104      1     34      4       305.4           305.4    
    105      1     34      5       304.9           304.9    
    106      1     34      6       304.3           304.3    
    107      1     34      7       303.6           303.6    
    108      1     34      8       303.0           303.0    
    109      1     34      9       302.3           302.3    
    110      1     34     10       301.6           301.6    
    111      1     34     11       300.9           300.9    
    112      1     34     12       300.1           300.1    
    113      1     34     13       299.2           299.2    
    114      1     34     14       298.3           298.3    
    115      1     34     15       296.8           296.8    
    116      1     34     16       296.0           296.0    
    117      1     34     17       295.3           295.3    
    118      1     34     18       294.5           294.5    
    119      1     34     19       293.7           293.7    
    120      1     34     20       292.9           292.9    
    121      1     34     21       292.2           292.2    
    122      1     34     22       291.5           291.5    
    123      1     34     23       290.8           290.8    
    124      1     34     24       290.0           290.0    
    125      1     34     25       289.2           289.2    
    126      1     34     26       288.5           288.5    
    127      1     34     27       287.8           287.8    
    128      1     34     28       287.1           287.1    
    129      1     34     29       286.5           286.5    
    130      1     34     30       285.9           285.9    
    131      1     34     31       285.3           285.3    
    132      1     34     32       284.7           284.7    
    133      1     34     33       284.2           284.2    
    134      1     34     34       283.7           283.7    
    135      1     34     35       283.0           283.0    
    136      1     34     36       282.2           282.2    
    137      2      1      1       315.8           315.8    
    138      2      1      2       315.7           315.7    
    139      2      1      3       315.5           315.5    
    140      2      1      4       315.4           315.4    
    141      2      1      5       315.2           315.2    
    142      2      1      6       314.9           314.9    
    143      2      1      7       314.6           314.6    
    144      2      1      8       314.3           314.3    
    145      2      1      9       313.9           313.9    
    146      2      1     10       313.6           313.6    
    147      2      1     11       313.3           313.3    
    148      2      1     12       313.0           313.0    
    149      2      1     13       312.6           312.6    
    150      2      1     14       312.2           312.2    
    151      2      1     15       311.7           311.7    
    152      2      1     16       311.3           311.3    
    153      2      1     17       310.8           310.8    
    154      2      1     18       310.2           310.2    
    155      2      1     19       309.6           309.6    
    156      2      1     20       308.9           308.9    
    157      2      1     21       308.3           308.3    
    158      2      1     22       307.6           307.6    
    159      2      1     23       306.9           306.9    
    160      2      1     24       306.2           306.2    
    161      2      1     25       305.4           305.4    
    162      2      1     26       304.7           304.7    
    163      2      1     27       303.9           303.9    
    164      2      1     28       303.2           303.2    
    165      2      1     29       302.5           302.5    
    166      2      1     30       301.8           301.8    
    167      2      1     31       301.2           301.2    
    168      2      1     32       300.5           300.5    
    169      2      1     33       299.9           299.9    
    170      2      1     34       299.1           299.1    
    171      2      1     35       298.5           298.5    
    172      2      1     36       297.8           297.8    
    173      2      2      1       315.6           315.6    
    174      2      3      1       315.5           315.5    
    175      2      4      1       315.4           315.4    
    176      2      5      1       315.2           315.2    
    177      2      6      1       315.0           315.0    
    178      2      7      1       314.9           314.9    
    179      2      8      1       314.7           314.7    
    180      2      9      1       314.5           314.5    
    181      2     10      1       314.4           314.4    
    182      2     11      1       314.2           314.2    
    183      2     12      1       314.0           314.0    
    184      2     13      1       313.8           313.8    
    185      2     14      1       313.6           313.6    
    186      2     15      1       313.4           313.4    
    187      2     16      1       313.1           313.1    
    188      2     17      1       312.9           312.9    
    189      2     18      1       312.6           312.6    
    190      2     19      1       312.4           312.4    
    191      2     20      1       312.1           312.1    
    192      2     21      1       311.8           311.8    
    193      2     22      1       311.3           311.3    
    194      2     23      1       311.1           311.1    
    195      2     24      1       310.9           310.9    
    196      2     25      1       310.7           310.7    
    197      2     26      1       310.1           310.1    
    198      2     27      1       309.7           309.7    
    199      2     28      1       309.2           309.2    
    200      2     29      1       308.8           308.8    
    201      2     30      1       308.3           308.3    
    202      2     31      1       307.9           307.9    
    203      2     32      1       307.4           307.4    
    204      2     33      1       307.0           307.0    
    205      2      2     36       297.1           297.1    
    206      2      3     36       296.5           296.5    
    207      2      4     36       296.0           296.0    
    208      2      5     36       295.4           295.4    
    209      2      6     36       294.8           294.8    
    210      2      7     36       294.2           294.2    
    211      2      8     36       293.5           293.5    
    212      2      9     36       292.6           292.6    
    213      2     10     36       291.7           291.7    
    214      2     11     36       290.8           290.8    
    215      2     12     36       289.9           289.9    
    216      2     13     36       289.0           289.0    
    217      2     14     36       288.1           288.1    
    218      2     15     36       287.0           287.0    
    219      2     16     36       285.7           285.7    
    220      2     17     36       285.7           285.7    
    221      2     18     36       285.7           285.7    
    222      2     19     36       285.8           285.8    
    223      2     20     36       285.9           285.9    
    224      2     21     36       286.0           286.0    
    225      2     22     36       286.0           286.0    
    226      2     23     36       285.8           285.8    
    227      2     24     36       285.7           285.7    
    228      2     25     36       285.4           285.4    
    229      2     26     36       285.1           285.1    
    230      2     27     36       284.8           284.8    
    231      2     28     36       284.5           284.5    
    232      2     29     36       284.3           284.3    
    233      2     30     36       283.9           283.9    
    234      2     31     36       283.6           283.6    
    235      2     32     36       283.3           283.3    
    236      2     33     36       282.8           282.8    
    237      2     34      1       306.5           306.5    
    238      2     34      2       306.2           306.2    
    239      2     34      3       305.8           305.8    
    240      2     34      4       305.4           305.4    
    241      2     34      5       304.9           304.9    
    242      2     34      6       304.3           304.3    
    243      2     34      7       303.6           303.6    
    244      2     34      8       303.0           303.0    
    245      2     34      9       302.3           302.3    
    246      2     34     10       301.6           301.6    
    247      2     34     11       300.9           300.9    
    248      2     34     12       300.1           300.1    
    249      2     34     13       299.2           299.2    
    250      2     34     14       298.3           298.3    
    251      2     34     15       296.8           296.8    
    252      2     34     16       296.0           296.0    
    253      2     34     17       295.3           295.3    
    254      2     34     18       294.5           294.5    
    255      2     34     19       293.7           293.7    
    256      2     34     20       292.9           292.9    
    257      2     34     21       292.2           292.2    
    258      2     34     22       291.5           291.5    
    259      2     34     23       290.8           290.8    
    260      2     34     24       290.0           290.0    
    261      2     34     25       289.2           289.2    
    262      2     34     26       288.5           288.5    
    263      2     34     27       287.8           287.8    
    264      2     34     28       287.1           287.1    
    265      2     34     29       286.5           286.5    
    266      2     34     30       285.9           285.9    
    267      2     34     31       285.3           285.3    
    268      2     34     32       284.7           284.7    
    269      2     34     33       284.2           284.2    
    270      2     34     34       283.6           283.6    
    271      2     34     35       283.0           283.0    
    272      2     34     36       282.2           282.2    
    273      3      1      1       315.8           315.8    
    274      3      1      2       315.7           315.7    
    275      3      1      3       315.5           315.5    
    276      3      1      4       315.3           315.3    
    277      3      1      5       315.1           315.1    
    278      3      1      6       314.9           314.9    
    279      3      1      7       314.6           314.6    
    280      3      1      8       314.2           314.2    
    281      3      1      9       313.9           313.9    
    282      3      1     10       313.6           313.6    
    283      3      1     11       313.3           313.3    
    284      3      1     12       312.9           312.9    
    285      3      1     13       312.6           312.6    
    286      3      1     14       312.2           312.2    
    287      3      1     15       311.7           311.7    
    288      3      1     16       311.2           311.2    
    289      3      1     17       310.7           310.7    
    290      3      1     18       310.2           310.2    
    291      3      1     19       309.6           309.6    
    292      3      1     20       308.9           308.9    
    293      3      1     21       308.2           308.2    
    294      3      1     22       307.6           307.6    
    295      3      1     23       306.9           306.9    
    296      3      1     24       306.2           306.2    
    297      3      1     25       305.4           305.4    
    298      3      1     26       304.7           304.7    
    299      3      1     27       304.0           304.0    
    300      3      1     28       303.2           303.2    
    301      3      1     29       302.5           302.5    
    302      3      1     30       301.9           301.9    
    303      3      1     31       301.2           301.2    
    304      3      1     32       300.5           300.5    
    305      3      1     33       299.9           299.9    
    306      3      1     34       299.2           299.2    
    307      3      1     35       298.5           298.5    
    308      3      1     36       297.8           297.8    
    309      3      2      1       315.6           315.6    
    310      3      3      1       315.5           315.5    
    311      3      4      1       315.3           315.3    
    312      3      5      1       315.2           315.2    
    313      3      6      1       315.0           315.0    
    314      3      7      1       314.8           314.8    
    315      3      8      1       314.7           314.7    
    316      3      9      1       314.5           314.5    
    317      3     10      1       314.3           314.3    
    318      3     11      1       314.2           314.2    
    319      3     12      1       314.0           314.0    
    320      3     13      1       313.8           313.8    
    321      3     14      1       313.5           313.5    
    322      3     15      1       313.3           313.3    
    323      3     16      1       313.1           313.1    
    324      3     17      1       312.9           312.9    
    325      3     18      1       312.6           312.6    
    326      3     19      1       312.4           312.4    
    327      3     20      1       312.1           312.1    
    328      3     21      1       311.7           311.7    
    329      3     22      1       311.3           311.3    
    330      3     23      1       311.1           311.1    
    331      3     24      1       310.9           310.9    
    332      3     25      1       310.7           310.7    
    333      3     26      1       310.1           310.1    
    334      3     27      1       309.7           309.7    
    335      3     28      1       309.2           309.2    
    336      3     29      1       308.8           308.8    
    337      3     30      1       308.3           308.3    
    338      3     31      1       307.9           307.9    
    339      3     32      1       307.4           307.4    
    340      3     33      1       307.0           307.0    
    341      3      2     36       297.1           297.1    
    342      3      3     36       296.6           296.6    
    343      3      4     36       296.0           296.0    
    344      3      5     36       295.4           295.4    
    345      3      6     36       294.8           294.8    
    346      3      7     36       294.1           294.1    
    347      3      8     36       293.4           293.4    
    348      3      9     36       292.6           292.6    
    349      3     10     36       291.7           291.7    
    350      3     11     36       290.9           290.9    
    351      3     12     36       289.9           289.9    
    352      3     13     36       289.0           289.0    
    353      3     14     36       288.1           288.1    
    354      3     15     36       287.0           287.0    
    355      3     16     36       285.9           285.9    
    356      3     17     36       285.7           285.7    
    357      3     18     36       285.7           285.7    
    358      3     19     36       285.8           285.8    
    359      3     20     36       285.8           285.8    
    360      3     21     36       285.9           285.9    
    361      3     22     36       285.9           285.9    
    362      3     23     36       285.8           285.8    
    363      3     24     36       285.6           285.6    
    364      3     25     36       285.4           285.4    
    365      3     26     36       285.1           285.1    
    366      3     27     36       284.8           284.8    
    367      3     28     36       284.5           284.5    
    368      3     29     36       284.3           284.3    
    369      3     30     36       283.9           283.9    
    370      3     31     36       283.6           283.6    
    371      3     32     36       283.2           283.2    
    372      3     33     36       282.8           282.8    
    373      3     34      1       306.5           306.5    
    374      3     34      2       306.2           306.2    
    375      3     34      3       305.8           305.8    
    376      3     34      4       305.4           305.4    
    377      3     34      5       304.9           304.9    
    378      3     34      6       304.3           304.3    
    379      3     34      7       303.6           303.6    
    380      3     34      8       303.0           303.0    
    381      3     34      9       302.3           302.3    
    382      3     34     10       301.6           301.6    
    383      3     34     11       300.9           300.9    
    384      3     34     12       300.0           300.0    
    385      3     34     13       299.2           299.2    
    386      3     34     14       298.3           298.3    
    387      3     34     15       296.8           296.8    
    388      3     34     16       296.0           296.0    
    389      3     34     17       295.3           295.3    
    390      3     34     18       294.5           294.5    
    391      3     34     19       293.7           293.7    
    392      3     34     20       292.9           292.9    
    393      3     34     21       292.2           292.2    
    394      3     34     22       291.5           291.5    
    395      3     34     23       290.8           290.8    
    396      3     34     24       290.0           290.0    
    397      3     34     25       289.2           289.2    
    398      3     34     26       288.5           288.5    
    399      3     34     27       287.8           287.8    
    400      3     34     28       287.2           287.2    
    401      3     34     29       286.5           286.5    
    402      3     34     30       285.9           285.9    
    403      3     34     31       285.3           285.3    
    404      3     34     32       284.7           284.7    
    405      3     34     33       284.2           284.2    
    406      3     34     34       283.6           283.6    
    407      3     34     35       283.0           283.0    
    408      3     34     36       282.2           282.2    
    409      4      1      1       315.7           315.7    
    410      4      1      2       315.6           315.6    
    411      4      1      3       315.4           315.4    
    412      4      1      4       315.2           315.2    
    413      4      1      5       314.8           314.8    
    414      4      1      6       314.7           314.7    
    415      4      1      7       314.5           314.5    
    416      4      1      8       314.2           314.2    
    417      4      1      9       313.9           313.9    
    418      4      1     10       313.6           313.6    
    419      4      1     11       313.2           313.2    
    420      4      1     12       312.9           312.9    
    421      4      1     13       312.5           312.5    
    422      4      1     14       312.1           312.1    
    423      4      1     15       311.7           311.7    
    424      4      1     16       311.2           311.2    
    425      4      1     17       310.7           310.7    
    426      4      1     18       310.1           310.1    
    427      4      1     19       309.5           309.5    
    428      4      1     20       308.9           308.9    
    429      4      1     21       308.2           308.2    
    430      4      1     22       307.5           307.5    
    431      4      1     23       306.8           306.8    
    432      4      1     24       306.1           306.1    
    433      4      1     25       305.4           305.4    
    434      4      1     26       304.7           304.7    
    435      4      1     27       303.9           303.9    
    436      4      1     28       303.2           303.2    
    437      4      1     29       302.6           302.6    
    438      4      1     30       301.9           301.9    
    439      4      1     31       301.2           301.2    
    440      4      1     32       300.5           300.5    
    441      4      1     33       299.9           299.9    
    442      4      1     34       299.2           299.2    
    443      4      1     35       298.5           298.5    
    444      4      1     36       297.7           297.7    
    445      4      2      1       315.6           315.6    
    446      4      3      1       315.4           315.4    
    447      4      4      1       315.3           315.3    
    448      4      5      1       315.1           315.1    
    449      4      6      1       314.9           314.9    
    450      4      7      1       314.7           314.7    
    451      4      8      1       314.6           314.6    
    452      4      9      1       314.4           314.4    
    453      4     10      1       314.2           314.2    
    454      4     11      1       314.0           314.0    
    455      4     12      1       313.8           313.8    
    456      4     13      1       313.6           313.6    
    457      4     14      1       313.3           313.3    
    458      4     15      1       313.1           313.1    
    459      4     16      1       312.9           312.9    
    460      4     17      1       312.7           312.7    
    461      4     18      1       312.4           312.4    
    462      4     19      1       312.2           312.2    
    463      4     20      1       311.9           311.9    
    464      4     21      1       311.6           311.6    
    465      4     22      1       311.3           311.3    
    466      4     23      1       311.0           311.0    
    467      4     24      1       310.7           310.7    
    468      4     25      1       310.3           310.3    
    469      4     26      1       309.9           309.9    
    470      4     27      1       309.5           309.5    
    471      4     28      1       309.0           309.0    
    472      4     29      1       308.6           308.6    
    473      4     30      1       308.2           308.2    
    474      4     31      1       307.7           307.7    
    475      4     32      1       307.3           307.3    
    476      4     33      1       306.8           306.8    
    477      4      2     36       297.2           297.2    
    478      4      3     36       296.6           296.6    
    479      4      4     36       296.0           296.0    
    480      4      5     36       295.4           295.4    
    481      4      6     36       294.8           294.8    
    482      4      7     36       294.1           294.1    
    483      4      8     36       293.4           293.4    
    484      4      9     36       292.6           292.6    
    485      4     10     36       291.8           291.8    
    486      4     11     36       290.9           290.9    
    487      4     12     36       290.0           290.0    
    488      4     13     36       289.1           289.1    
    489      4     14     36       288.2           288.2    
    490      4     15     36       287.2           287.2    
    491      4     16     36       286.3           286.3    
    492      4     17     36       285.9           285.9    
    493      4     18     36       285.7           285.7    
    494      4     19     36       285.7           285.7    
    495      4     20     36       285.7           285.7    
    496      4     21     36       285.8           285.8    
    497      4     22     36       285.8           285.8    
    498      4     23     36       285.7           285.7    
    499      4     24     36       285.5           285.5    
    500      4     25     36       285.3           285.3    
    501      4     26     36       285.1           285.1    
    502      4     27     36       284.8           284.8    
    503      4     28     36       284.5           284.5    
    504      4     29     36       284.2           284.2    
    505      4     30     36       283.9           283.9    
    506      4     31     36       283.5           283.5    
    507      4     32     36       283.1           283.1    
    508      4     33     36       282.7           282.7    
    509      4     34      1       306.4           306.4    
    510      4     34      2       306.0           306.0    
    511      4     34      3       305.5           305.5    
    512      4     34      4       305.1           305.1    
    513      4     34      5       304.6           304.6    
    514      4     34      6       304.0           304.0    
    515      4     34      7       303.4           303.4    
    516      4     34      8       302.8           302.8    
    517      4     34      9       302.1           302.1    
    518      4     34     10       301.4           301.4    
    519      4     34     11       300.7           300.7    
    520      4     34     12       299.9           299.9    
    521      4     34     13       299.0           299.0    
    522      4     34     14       298.1           298.1    
    523      4     34     15       297.2           297.2    
    524      4     34     16       296.4           296.4    
    525      4     34     17       295.6           295.6    
    526      4     34     18       294.8           294.8    
    527      4     34     19       294.0           294.0    
    528      4     34     20       293.2           293.2    
    529      4     34     21       292.4           292.4    
    530      4     34     22       291.7           291.7    
    531      4     34     23       290.9           290.9    
    532      4     34     24       290.1           290.1    
    533      4     34     25       289.4           289.4    
    534      4     34     26       288.6           288.6    
    535      4     34     27       287.9           287.9    
    536      4     34     28       287.2           287.2    
    537      4     34     29       286.5           286.5    
    538      4     34     30       285.9           285.9    
    539      4     34     31       285.3           285.3    
    540      4     34     32       284.7           284.7    
    541      4     34     33       284.1           284.1    
    542      4     34     34       283.5           283.5    
    543      4     34     35       282.8           282.8    
    544      4     34     36       282.2           282.2    


    544 TIME-VARIANT SPECIFIED-HEAD CELLS



 CLASSIFICATION & COUNT OF STREAM SEGMENTS BASED ON SOURCE OF INFLOW:

                HEADWATER     DIVERSION     RECEIVES TRIBUTARY FLOW
                ---------     ---------     -----------------------
                     2              0               0



                    INPUT DATA FOR EACH STREAM SEGMENT
 ---------------------------------------------------------------------------------------------

 SEGMENT    SEG.     INFLOW   OVERLAND   STREAM    STREAM   ICALC  OUTFLOW  DIVERSION PRIORITY
    NO.    LENGTH     RATE     RUNOFF      ET       PPT.    METH.  TO SEG.  FROM SEG.    NO.

      1  2.896E+03 0.000E+00 0.000E+00 0.000E+00 0.000E+00    1        0        0        0
      2  4.160E+03 0.000E+00 0.000E+00 0.000E+00 0.000E+00    1        0        0        0


         STREAMBED PROPERTIES AND STREAM DIMENSIONS

 SEGMENT     WIDTH OF STREAM     DEPTH OF STREAM    STREAM ROUGHNESS
    No.     UPPER     LOWER     UPPER     LOWER     CHANNEL      BANK

     1    1.000E+00 4.511E+00                      3.700E-02
     2    1.000E+00 4.037E+00                      3.700E-02




 SOLVING FOR HEAD 
                                                   Max.-Head-Change                         Max.-Flux-Residual
  Residual-Control   Outer-Iter.   Inner-Iter.     Column Row Layer    Maximum-Head-Change  Column Row Layer    Maximum-Flux-Residual          L2-NORM 
          0                 1          17            24   27     1      -0.2907578512E+01      35    2    1        -0.3483641539E+04      0.1553058077E+05
          0                 2          15             2   15     2      -0.6367088540E+00       2    2    1        -0.5524124228E+03      0.2037058391E+04
          0                 3          10            24   27     1       0.2924481360E+00       4   20    3         0.1061274605E+03      0.1895824620E+03
          0                 4           5            24   27     1       0.2917424311E-01       4   20    3         0.1016152325E+02      0.1629825074E+02
          0                 5           2            24   27     1       0.2907444869E-02       4   20    3         0.1003203105E+01      0.1918350277E+01

    ------------------------------------------------
       NWT REQUIRED            5 OUTER ITERATIONS 
       AND A TOTAL OF         49 INNER ITERATIONS.
    ------------------------------------------------

 OUTPUT CONTROL FOR STRESS PERIOD    1   TIME STEP    1
    SAVE HEAD FOR ALL LAYERS
    SAVE BUDGET
 UBDSV2 SAVING "   CONSTANT HEAD" ON UNIT  53 AT TIME STEP  1, STRESS PERIOD   1
 UBDSV1 SAVING "FLOW RIGHT FACE " ON UNIT  53 AT TIME STEP  1, STRESS PERIOD   1
 UBDSV1 SAVING "FLOW FRONT FACE " ON UNIT  53 AT TIME STEP  1, STRESS PERIOD   1
 UBDSV1 SAVING "FLOW LOWER FACE " ON UNIT  53 AT TIME STEP  1, STRESS PERIOD   1
 UBDSV4 SAVING "           WELLS" ON UNIT  53 AT TIME STEP  1, STRESS PERIOD   1
 UBDSV3 SAVING "        RECHARGE" ON UNIT  53 AT TIME STEP  1, STRESS PERIOD   1

 HEAD WILL BE SAVED ON UNIT   51 AT END OF TIME STEP    1, STRESS PERIOD    1
1
  VOLUMETRIC BUDGET FOR ENTIRE MODEL AT END OF TIME STEP    1, STRESS PERIOD   1
  ------------------------------------------------------------------------------

     CUMULATIVE VOLUMES      L**3       RATES FOR THIS TIME STEP      L**3/T
     ------------------                 ------------------------

           IN:                                      IN:
           ---                                      ---
             STORAGE =           0.0000               STORAGE =           0.0000
       CONSTANT HEAD =       23967.6973         CONSTANT HEAD =       23967.6973
               WELLS =           0.0000                 WELLS =           0.0000
            RECHARGE =       34681.3477              RECHARGE =       34681.3477
      STREAM LEAKAGE =          62.1641        STREAM LEAKAGE =          62.1641

            TOTAL IN =       58711.2109              TOTAL IN =       58711.2109

          OUT:                                     OUT:
          ----                                     ----
             STORAGE =           0.0000               STORAGE =           0.0000
       CONSTANT HEAD =       39500.9219         CONSTANT HEAD =       39500.9219
               WELLS =        2383.0227                 WELLS =        2383.0227
            RECHARGE =           0.0000              RECHARGE =           0.0000
      STREAM LEAKAGE =       16828.5156        STREAM LEAKAGE =       16828.5156

           TOTAL OUT =       58712.4609             TOTAL OUT =       58712.4609

            IN - OUT =          -1.2500              IN - OUT =          -1.2500

 PERCENT DISCREPANCY =          -0.00     PERCENT DISCREPANCY =          -0.00






         TIME SUMMARY AT END OF TIME STEP    1 IN STRESS PERIOD    1
                    SECONDS     MINUTES      HOURS       DAYS        YEARS
                    -----------------------------------------------------------
   TIME STEP LENGTH  86400.      1440.0      24.000      1.0000     2.73785E-03
 STRESS PERIOD TIME  86400.      1440.0      24.000      1.0000     2.73785E-03
         TOTAL TIME  86400.      1440.0      24.000      1.0000     2.73785E-03
1
1
                            STRESS PERIOD NO.    2, LENGTH =   31.00000    
                            -----------------------------------------------

                              NUMBER OF TIME STEPS =     5

                               MULTIPLIER FOR DELT =     1.500

                            INITIAL TIME STEP SIZE =   2.350711    

 OPENING FILE ON UNIT   99:
 external/WEL_0001.dat                                                                                                                                                                                   

 WELL NO.  LAYER   ROW   COL   STRESS RATE         
 --------------------------------------------------
      1      3     10      3       0.000    
      2      3     14      3       0.000    
      3      4     14     29       0.000    
      4      4     18      3       0.000    
      5      4     14     15       0.000    
      6      4     34     14       0.000    
      7      4     13     24       0.000    
      8      4      1      5       0.000    
      9      4     25     28       0.000    
     10      4      6      3       0.000    
     11      4      4      5       0.000    

     11 WELLS

 OPENING FILE ON UNIT   99:
 external/finf1.dat                                                                                                                                                                                      



                           RECHARGE
 READING ON UNIT   99 WITH FORMAT: (FREE)              

 OPENING FILE ON UNIT   99:
 external/CHD_0001.dat                                                                                                                                                                                   

 CHD NO.   LAYER   ROW   COL    START HEAD        END HEAD         
 ------------------------------------------------------------------
      1      1      1      1       315.8           315.7    
      2      1      1      2       315.7           315.6    
      3      1      1      3       315.5           315.4    
      4      1      1      4       315.4           315.3    
      5      1      1      5       315.2           315.1    
      6      1      1      6       314.9           314.9    
      7      1      1      7       314.6           314.6    
      8      1      1      8       314.3           314.3    
      9      1      1      9       313.9           313.9    
     10      1      1     10       313.6           313.6    
     11      1      1     11       313.3           313.3    
     12      1      1     12       313.0           312.9    
     13      1      1     13       312.6           312.6    
     14      1      1     14       312.2           312.2    
     15      1      1     15       311.7           311.7    
     16      1      1     16       311.3           311.2    
     17      1      1     17       310.8           310.7    
     18      1      1     18       310.2           310.2    
     19      1      1     19       309.6           309.6    
     20      1      1     20       308.9           308.9    
     21      1      1     21       308.3           308.2    
     22      1      1     22       307.6           307.6    
     23      1      1     23       306.9           306.9    
     24      1      1     24       306.2           306.1    
     25      1      1     25       305.3           305.3    
     26      1      1     26       304.7           304.6    
     27      1      1     27       303.9           303.8    
     28      1      1     28       303.2           303.1    
     29      1      1     29       302.5           302.4    
     30      1      1     30       301.8           301.8    
     31      1      1     31       301.1           301.1    
     32      1      1     32       300.5           300.4    
     33      1      1     33       299.9           299.8    
     34      1      1     34       299.1           299.1    
     35      1      1     35       298.5           298.4    
     36      1      1     36       297.8           297.7    
     37      1      2      1       315.6           315.6    
     38      1      3      1       315.5           315.4    
     39      1      4      1       315.4           315.3    
     40      1      5      1       315.2           315.1    
     41      1      6      1       315.0           315.0    
     42      1      7      1       314.9           314.8    
     43      1      8      1       314.7           314.7    
     44      1      9      1       314.5           314.5    
     45      1     10      1       314.4           314.3    
     46      1     11      1       314.2           314.2    
     47      1     12      1       314.0           314.0    
     48      1     13      1       313.8           313.8    
     49      1     14      1       313.6           313.5    
     50      1     15      1       313.4           313.3    
     51      1     16      1       313.1           313.1    
     52      1     17      1       312.9           312.9    
     53      1     18      1       312.7           312.6    
     54      1     19      1       312.4           312.4    
     55      1     20      1       312.1           312.1    
     56      1     21      1       311.8           311.7    
     57      1     22      1       311.4           311.2    
     58      1     23      1       311.1           311.0    
     59      1     24      1       310.9           310.8    
     60      1     25      1       310.7           310.5    
     61      1     26      1       310.1           309.8    
     62      1     27      1       309.7           309.4    
     63      1     28      1       309.2           308.9    
     64      1     29      1       308.8           308.5    
     65      1     30      1       308.3           308.1    
     66      1     31      1       307.9           307.6    
     67      1     32      1       307.4           307.2    
     68      1     33      1       307.0           306.7    
     69      1      2     36       297.1           297.0    
     70      1      3     36       296.5           296.4    
     71      1      4     36       296.0           295.9    
     72      1      5     36       295.4           295.3    
     73      1      6     36       294.8           294.7    
     74      1      7     36       294.2           294.1    
     75      1      8     36       293.5           293.4    
     76      1      9     36       292.6           292.5    
     77      1     10     36       291.7           291.6    
     78      1     11     36       290.8           290.7    
     79      1     12     36       289.9           289.8    
     80      1     13     36       289.0           288.9    
     81      1     14     36       288.1           288.1    
     82      1     15     36       286.9           286.9    
     83      1     16     36       285.6           285.5    
     84      1     17     36       285.7           285.6    
     85      1     18     36       285.7           285.7    
     86      1     19     36       285.8           285.8    
     87      1     20     36       285.9           285.9    
     88      1     21     36       286.0           286.0    
     89      1     22     36       286.0           286.0    
     90      1     23     36       285.9           285.8    
     91      1     24     36       285.7           285.6    
     92      1     25     36       285.4           285.4    
     93      1     26     36       285.1           285.0    
     94      1     27     36       284.8           284.7    
     95      1     28     36       284.5           284.5    
     96      1     29     36       284.3           284.2    
     97      1     30     36       283.9           283.8    
     98      1     31     36       283.6           283.5    
     99      1     32     36       283.3           283.2    
    100      1     33     36       282.8           282.8    
    101      1     34      1       306.5           306.3    
    102      1     34      2       306.2           305.9    
    103      1     34      3       305.8           305.4    
    104      1     34      4       305.4           305.0    
    105      1     34      5       304.9           304.5    
    106      1     34      6       304.3           303.9    
    107      1     34      7       303.6           303.3    
    108      1     34      8       303.0           302.7    
    109      1     34      9       302.3           302.0    
    110      1     34     10       301.6           301.3    
    111      1     34     11       300.9           300.6    
    112      1     34     12       300.1           299.9    
    113      1     34     13       299.2           299.1    
    114      1     34     14       298.3           298.2    
    115      1     34     15       296.8           296.7    
    116      1     34     16       296.0           295.9    
    117      1     34     17       295.3           295.2    
    118      1     34     18       294.5           294.5    
    119      1     34     19       293.7           293.7    
    120      1     34     20       292.9           292.9    
    121      1     34     21       292.2           292.2    
    122      1     34     22       291.5           291.5    
    123      1     34     23       290.8           290.7    
    124      1     34     24       290.0           289.9    
    125      1     34     25       289.2           289.1    
    126      1     34     26       288.5           288.4    
    127      1     34     27       287.8           287.7    
    128      1     34     28       287.1           287.0    
    129      1     34     29       286.5           286.4    
    130      1     34     30       285.9           285.8    
    131      1     34     31       285.3           285.2    
    132      1     34     32       284.7           284.6    
    133      1     34     33       284.2           284.1    
    134      1     34     34       283.7           283.6    
    135      1     34     35       283.0           282.9    
    136      1     34     36       282.2           282.2    
    137      2      1      1       315.8           315.7    
    138      2      1      2       315.7           315.6    
    139      2      1      3       315.5           315.4    
    140      2      1      4       315.4           315.3    
    141      2      1      5       315.2           315.1    
    142      2      1      6       314.9           314.9    
    143      2      1      7       314.6           314.6    
    144      2      1      8       314.3           314.2    
    145      2      1      9       313.9           313.9    
    146      2      1     10       313.6           313.6    
    147      2      1     11       313.3           313.3    
    148      2      1     12       313.0           312.9    
    149      2      1     13       312.6           312.6    
    150      2      1     14       312.2           312.2    
    151      2      1     15       311.7           311.7    
    152      2      1     16       311.3           311.2    
    153      2      1     17       310.8           310.7    
    154      2      1     18       310.2           310.2    
    155      2      1     19       309.6           309.6    
    156      2      1     20       308.9           308.9    
    157      2      1     21       308.3           308.2    
    158      2      1     22       307.6           307.5    
    159      2      1     23       306.9           306.9    
    160      2      1     24       306.2           306.1    
    161      2      1     25       305.4           305.3    
    162      2      1     26       304.7           304.6    
    163      2      1     27       303.9           303.9    
    164      2      1     28       303.2           303.1    
    165      2      1     29       302.5           302.5    
    166      2      1     30       301.8           301.8    
    167      2      1     31       301.2           301.1    
    168      2      1     32       300.5           300.4    
    169      2      1     33       299.9           299.8    
    170      2      1     34       299.1           299.1    
    171      2      1     35       298.5           298.4    
    172      2      1     36       297.8           297.7    
    173      2      2      1       315.6           315.6    
    174      2      3      1       315.5           315.4    
    175      2      4      1       315.4           315.3    
    176      2      5      1       315.2           315.1    
    177      2      6      1       315.0           315.0    
    178      2      7      1       314.9           314.8    
    179      2      8      1       314.7           314.7    
    180      2      9      1       314.5           314.5    
    181      2     10      1       314.4           314.3    
    182      2     11      1       314.2           314.2    
    183      2     12      1       314.0           314.0    
    184      2     13      1       313.8           313.8    
    185      2     14      1       313.6           313.5    
    186      2     15      1       313.4           313.3    
    187      2     16      1       313.1           313.1    
    188      2     17      1       312.9           312.9    
    189      2     18      1       312.6           312.6    
    190      2     19      1       312.4           312.4    
    191      2     20      1       312.1           312.1    
    192      2     21      1       311.8           311.7    
    193      2     22      1       311.3           311.2    
    194      2     23      1       311.1           311.0    
    195      2     24      1       310.9           310.8    
    196      2     25      1       310.7           310.5    
    197      2     26      1       310.1           309.8    
    198      2     27      1       309.7           309.4    
    199      2     28      1       309.2           308.9    
    200      2     29      1       308.8           308.5    
    201      2     30      1       308.3           308.1    
    202      2     31      1       307.9           307.6    
    203      2     32      1       307.4           307.2    
    204      2     33      1       307.0           306.7    
    205      2      2     36       297.1           297.0    
    206      2      3     36       296.5           296.5    
    207      2      4     36       296.0           295.9    
    208      2      5     36       295.4           295.3    
    209      2      6     36       294.8           294.7    
    210      2      7     36       294.2           294.1    
    211      2      8     36       293.5           293.4    
    212      2      9     36       292.6           292.5    
    213      2     10     36       291.7           291.6    
    214      2     11     36       290.8           290.8    
    215      2     12     36       289.9           289.8    
    216      2     13     36       289.0           289.0    
    217      2     14     36       288.1           288.1    
    218      2     15     36       287.0           286.9    
    219      2     16     36       285.7           285.7    
    220      2     17     36       285.7           285.6    
    221      2     18     36       285.7           285.7    
    222      2     19     36       285.8           285.7    
    223      2     20     36       285.9           285.8    
    224      2     21     36       286.0           286.0    
    225      2     22     36       286.0           285.9    
    226      2     23     36       285.8           285.8    
    227      2     24     36       285.7           285.6    
    228      2     25     36       285.4           285.4    
    229      2     26     36       285.1           285.0    
    230      2     27     36       284.8           284.7    
    231      2     28     36       284.5           284.5    
[...]
    346      3      7     36       293.7           293.6    
    347      3      8     36       293.0           292.9    
    348      3      9     36       292.2           292.1    
    349      3     10     36       291.4           291.3    
    350      3     11     36       290.5           290.5    
    351      3     12     36       289.6           289.6    
    352      3     13     36       288.8           288.7    
    353      3     14     36       287.9           287.8    
    354      3     15     36       286.8           286.7    
    355      3     16     36       285.7           285.6    
    356      3     17     36       285.5           285.5    
    357      3     18     36       285.5           285.5    
    358      3     19     36       285.6           285.6    
    359      3     20     36       285.7           285.7    
    360      3     21     36       285.9           285.8    
    361      3     22     36       285.8           285.8    
    362      3     23     36       285.7           285.7    
    363      3     24     36       285.5           285.5    
    364      3     25     36       285.2           285.2    
    365      3     26     36       284.9           284.9    
    366      3     27     36       284.6           284.5    
    367      3     28     36       284.3           284.2    
    368      3     29     36       284.0           284.0    
    369      3     30     36       283.6           283.6    
    370      3     31     36       283.3           283.3    
    371      3     32     36       283.0           283.0    
    372      3     33     36       282.6           282.5    
    373      3     34      1       305.8           305.7    
    374      3     34      2       305.4           305.3    
    375      3     34      3       305.0           304.9    
    376      3     34      4       304.5           304.4    
    377      3     34      5       304.1           303.9    
    378      3     34      6       303.5           303.4    
    379      3     34      7       302.9           302.9    
    380      3     34      8       302.3           302.2    
    381      3     34      9       301.7           301.6    
    382      3     34     10       301.0           300.9    
    383      3     34     11       300.3           300.2    
    384      3     34     12       299.5           299.4    
    385      3     34     13       298.7           298.6    
    386      3     34     14       297.8           297.8    
    387      3     34     15       296.5           296.4    
    388      3     34     16       295.7           295.6    
    389      3     34     17       295.0           295.0    
    390      3     34     18       294.3           294.3    
    391      3     34     19       293.6           293.5    
    392      3     34     20       292.8           292.7    
    393      3     34     21       292.0           292.0    
    394      3     34     22       291.3           291.3    
    395      3     34     23       290.5           290.5    
    396      3     34     24       289.7           289.7    
    397      3     34     25       288.9           288.9    
    398      3     34     26       288.2           288.1    
    399      3     34     27       287.5           287.4    
    400      3     34     28       286.8           286.7    
    401      3     34     29       286.1           286.1    
    402      3     34     30       285.5           285.5    
    403      3     34     31       284.9           284.9    
    404      3     34     32       284.4           284.3    
    405      3     34     33       283.8           283.8    
    406      3     34     34       283.3           283.2    
    407      3     34     35       282.7           282.6    
    408      3     34     36       282.0           281.9    
    409      4      1      1       314.6           314.6    
    410      4      1      2       314.5           314.5    
    411      4      1      3       314.4           314.4    
    412      4      1      4       314.2           314.2    
    413      4      1      5       314.1           314.1    
    414      4      1      6       313.9           313.9    
    415      4      1      7       313.7           313.7    
    416      4      1      8       313.4           313.4    
    417      4      1      9       313.2           313.2    
    418      4      1     10       313.0           312.9    
    419      4      1     11       312.7           312.7    
    420      4      1     12       312.4           312.4    
    421      4      1     13       312.1           312.0    
    422      4      1     14       311.7           311.7    
    423      4      1     15       311.3           311.3    
    424      4      1     16       310.9           310.8    
    425      4      1     17       310.4           310.4    
    426      4      1     18       309.9           309.8    
    427      4      1     19       309.3           309.3    
    428      4      1     20       308.7           308.6    
    429      4      1     21       308.0           307.9    
    430      4      1     22       307.3           307.2    
    431      4      1     23       306.6           306.5    
    432      4      1     24       305.8           305.8    
    433      4      1     25       305.1           305.0    
    434      4      1     26       304.3           304.3    
    435      4      1     27       303.6           303.5    
    436      4      1     28       302.9           302.8    
    437      4      1     29       302.2           302.1    
    438      4      1     30       301.5           301.4    
    439      4      1     31       300.8           300.7    
    440      4      1     32       300.1           300.0    
    441      4      1     33       299.4           299.4    
    442      4      1     34       298.7           298.7    
    443      4      1     35       298.1           298.0    
    444      4      1     36       297.3           297.2    
    445      4      2      1       314.5           314.5    
    446      4      3      1       314.3           314.3    
    447      4      4      1       314.2           314.2    
    448      4      5      1       314.1           314.1    
    449      4      6      1       313.9           313.9    
    450      4      7      1       313.7           313.7    
    451      4      8      1       313.5           313.6    
    452      4      9      1       313.4           313.4    
    453      4     10      1       313.2           313.2    
    454      4     11      1       312.9           313.0    
    455      4     12      1       312.7           312.7    
    456      4     13      1       312.4           312.5    
    457      4     14      1       312.2           312.2    
    458      4     15      1       312.0           312.0    
    459      4     16      1       311.8           311.8    
    460      4     17      1       311.7           311.6    
    461      4     18      1       311.5           311.4    
    462      4     19      1       311.3           311.2    
    463      4     20      1       311.1           311.0    
    464      4     21      1       310.8           310.7    
    465      4     22      1       310.5           310.4    
    466      4     23      1       310.2           310.1    
    467      4     24      1       309.9           309.8    
    468      4     25      1       309.6           309.5    
    469      4     26      1       309.2           309.1    
    470      4     27      1       308.8           308.7    
    471      4     28      1       308.4           308.3    
    472      4     29      1       308.0           307.9    
    473      4     30      1       307.6           307.5    
    474      4     31      1       307.2           307.0    
    475      4     32      1       306.7           306.6    
    476      4     33      1       306.3           306.2    
    477      4      2     36       296.7           296.7    
    478      4      3     36       296.2           296.1    
    479      4      4     36       295.6           295.5    
    480      4      5     36       295.0           294.9    
    481      4      6     36       294.3           294.3    
    482      4      7     36       293.7           293.6    
    483      4      8     36       293.0           292.9    
    484      4      9     36       292.2           292.1    
    485      4     10     36       291.4           291.3    
    486      4     11     36       290.6           290.5    
    487      4     12     36       289.7           289.6    
    488      4     13     36       288.8           288.8    
    489      4     14     36       287.9           287.9    
    490      4     15     36       287.0           286.9    
    491      4     16     36       286.1           286.1    
    492      4     17     36       285.7           285.7    
    493      4     18     36       285.6           285.5    
    494      4     19     36       285.6           285.5    
    495      4     20     36       285.6           285.6    
    496      4     21     36       285.7           285.7    
    497      4     22     36       285.7           285.6    
    498      4     23     36       285.5           285.5    
    499      4     24     36       285.4           285.3    
    500      4     25     36       285.1           285.1    
    501      4     26     36       284.9           284.8    
    502      4     27     36       284.6           284.5    
    503      4     28     36       284.3           284.2    
    504      4     29     36       283.9           283.9    
    505      4     30     36       283.6           283.6    
    506      4     31     36       283.3           283.2    
    507      4     32     36       282.9           282.8    
    508      4     33     36       282.4           282.4    
    509      4     34      1       305.8           305.7    
    510      4     34      2       305.4           305.3    
    511      4     34      3       305.0           304.9    
    512      4     34      4       304.5           304.4    
    513      4     34      5       304.1           303.9    
    514      4     34      6       303.5           303.4    
    515      4     34      7       302.9           302.9    
    516      4     34      8       302.3           302.2    
    517      4     34      9       301.7           301.6    
    518      4     34     10       301.0           300.9    
    519      4     34     11       300.3           300.2    
    520      4     34     12       299.5           299.4    
    521      4     34     13       298.7           298.6    
    522      4     34     14       297.8           297.8    
    523      4     34     15       296.9           296.9    
    524      4     34     16       296.1           296.1    
    525      4     34     17       295.3           295.3    
    526      4     34     18       294.5           294.5    
    527      4     34     19       293.8           293.7    
    528      4     34     20       293.0           292.9    
    529      4     34     21       292.2           292.2    
    530      4     34     22       291.5           291.4    
    531      4     34     23       290.7           290.6    
    532      4     34     24       289.9           289.8    
    533      4     34     25       289.1           289.0    
    534      4     34     26       288.3           288.3    
    535      4     34     27       287.6           287.5    
    536      4     34     28       286.8           286.8    
    537      4     34     29       286.2           286.1    
    538      4     34     30       285.5           285.5    
    539      4     34     31       284.9           284.9    
    540      4     34     32       284.3           284.3    
    541      4     34     33       283.8           283.7    
    542      4     34     34       283.2           283.1    
    543      4     34     35       282.5           282.5    
    544      4     34     36       281.9           281.9    


    544 TIME-VARIANT SPECIFIED-HEAD CELLS

 REUSING STREAM SEGMENT DATA FROM LAST STRESS PERIOD

 SOLVING FOR HEAD 
                                                   Max.-Head-Change                         Max.-Flux-Residual
  Residual-Control   Outer-Iter.   Inner-Iter.     Column Row Layer    Maximum-Head-Change  Column Row Layer    Maximum-Flux-Residual          L2-NORM 
          0                 1           4            25   27     1      -0.1312196487E+00       3   14    3         0.9088952762E+02      0.9993257086E+03
          0                 2           2            13   30     3      -0.7663472786E-01      13   30    3        -0.1120017160E+02      0.1138036401E+02
          0                 3           2            13   30     1      -0.9521918333E-03      20   20    1         0.1165171131E+00      0.1493273377E+00

    ------------------------------------------------
       NWT REQUIRED            3 OUTER ITERATIONS 
       AND A TOTAL OF          8 INNER ITERATIONS.
    ------------------------------------------------

 NO OUTPUT CONTROL FOR STRESS PERIOD   13   TIME STEP    1

 SOLVING FOR HEAD 
                                                   Max.-Head-Change                         Max.-Flux-Residual
  Residual-Control   Outer-Iter.   Inner-Iter.     Column Row Layer    Maximum-Head-Change  Column Row Layer    Maximum-Flux-Residual          L2-NORM 
          0                 1           4             3   14     3       0.1898761728E-01      18   16    2        -0.8562662623E+02      0.1001024015E+04
          0                 2           2             4   31     1      -0.1781256873E-03      35   31    1        -0.1464940999E+00      0.3657709974E+00

    ------------------------------------------------
       NWT REQUIRED            2 OUTER ITERATIONS 
       AND A TOTAL OF          6 INNER ITERATIONS.
    ------------------------------------------------

 NO OUTPUT CONTROL FOR STRESS PERIOD   13   TIME STEP    2

 SOLVING FOR HEAD 
                                                   Max.-Head-Change                         Max.-Flux-Residual
  Residual-Control   Outer-Iter.   Inner-Iter.     Column Row Layer    Maximum-Head-Change  Column Row Layer    Maximum-Flux-Residual          L2-NORM 
          0                 1           5             3   14     3       0.2461595240E-01      18   16    2        -0.8359921075E+02      0.1001206815E+04
          0                 2           2            17   28     4       0.3049666367E-02      19   26    2         0.1267762133E+02      0.1564815228E+02

    ------------------------------------------------
       NWT REQUIRED            2 OUTER ITERATIONS 
       AND A TOTAL OF          7 INNER ITERATIONS.
    ------------------------------------------------

 NO OUTPUT CONTROL FOR STRESS PERIOD   13   TIME STEP    3

 SOLVING FOR HEAD 
                                                   Max.-Head-Change                         Max.-Flux-Residual
  Residual-Control   Outer-Iter.   Inner-Iter.     Column Row Layer    Maximum-Head-Change  Column Row Layer    Maximum-Flux-Residual          L2-NORM 
          0                 1           5             4   22     3      -0.3318824254E-01      18   16    2        -0.8022749880E+02      0.1006186570E+04
          0                 2           2            11   24     1      -0.1457658450E-01      11   24    2        -0.2283977864E+02      0.2319722864E+02
          0                 3           1             6   10     3       0.8716286574E-04       6   10    3         0.3328487795E+00      0.3989197446E+00

    ------------------------------------------------
       NWT REQUIRED            3 OUTER ITERATIONS 
       AND A TOTAL OF          8 INNER ITERATIONS.
    ------------------------------------------------

 NO OUTPUT CONTROL FOR STRESS PERIOD   13   TIME STEP    4

 SOLVING FOR HEAD 
                                                   Max.-Head-Change                         Max.-Flux-Residual
  Residual-Control   Outer-Iter.   Inner-Iter.     Column Row Layer    Maximum-Head-Change  Column Row Layer    Maximum-Flux-Residual          L2-NORM 
          0                 1           5            11   24     2      -0.6106508245E-01      35    2    1        -0.7621223742E+02      0.1020053489E+04
          0                 2           3             7   22     3      -0.5357980035E-01      11   25    2        -0.1946627852E+02      0.2790700814E+02
          0                 3           2             7   23     3       0.1438323493E-03      13   23    3         0.4519068896E+00      0.4648650192E+00

    ------------------------------------------------
       NWT REQUIRED            3 OUTER ITERATIONS 
       AND A TOTAL OF         10 INNER ITERATIONS.
    ------------------------------------------------

 OUTPUT CONTROL FOR STRESS PERIOD   13   TIME STEP    5
    SAVE HEAD FOR ALL LAYERS
    SAVE BUDGET
 UBDSV1 SAVING "         STORAGE" ON UNIT  53 AT TIME STEP  5, STRESS PERIOD  13
 UBDSV2 SAVING "   CONSTANT HEAD" ON UNIT  53 AT TIME STEP  5, STRESS PERIOD  13
 UBDSV1 SAVING "FLOW RIGHT FACE " ON UNIT  53 AT TIME STEP  5, STRESS PERIOD  13
 UBDSV1 SAVING "FLOW FRONT FACE " ON UNIT  53 AT TIME STEP  5, STRESS PERIOD  13
 UBDSV1 SAVING "FLOW LOWER FACE " ON UNIT  53 AT TIME STEP  5, STRESS PERIOD  13
 UBDSV4 SAVING "           WELLS" ON UNIT  53 AT TIME STEP  5, STRESS PERIOD  13
 UBDSV3 SAVING "        RECHARGE" ON UNIT  53 AT TIME STEP  5, STRESS PERIOD  13

 HEAD WILL BE SAVED ON UNIT   51 AT END OF TIME STEP    5, STRESS PERIOD   13
1
  VOLUMETRIC BUDGET FOR ENTIRE MODEL AT END OF TIME STEP    5, STRESS PERIOD  13
  ------------------------------------------------------------------------------

     CUMULATIVE VOLUMES      L**3       RATES FOR THIS TIME STEP      L**3/T
     ------------------                 ------------------------

           IN:                                      IN:
           ---                                      ---
             STORAGE =     9718633.0000               STORAGE =       26237.5273
       CONSTANT HEAD =     8480878.0000         CONSTANT HEAD =       22098.6289
               WELLS =           0.0000                 WELLS =           0.0000
            RECHARGE =     7407951.5000              RECHARGE =        3202.6292
      STREAM LEAKAGE =       53114.4961        STREAM LEAKAGE =         414.8952

            TOTAL IN =    25660578.0000              TOTAL IN =       51953.6797

          OUT:                                     OUT:
          ----                                     ----
             STORAGE =     3877211.0000               STORAGE =         239.2015
       CONSTANT HEAD =    14325719.0000         CONSTANT HEAD =       38081.9922
               WELLS =     1654909.0000                 WELLS =           0.0000
            RECHARGE =           0.0000              RECHARGE =           0.0000
      STREAM LEAKAGE =     5802558.5000        STREAM LEAKAGE =       13632.4443

           TOTAL OUT =    25660398.0000             TOTAL OUT =       51953.6406

            IN - OUT =         180.0000              IN - OUT =       3.9062E-02

 PERCENT DISCREPANCY =           0.00     PERCENT DISCREPANCY =           0.00






         TIME SUMMARY AT END OF TIME STEP    5 IN STRESS PERIOD   13
                    SECONDS     MINUTES      HOURS       DAYS        YEARS
                    -----------------------------------------------------------
   TIME STEP LENGTH 1.02820E+06  17137.      285.61      11.900     3.25817E-02
 STRESS PERIOD TIME 2.67840E+06  44640.      744.00      31.000     8.48734E-02
         TOTAL TIME 3.17088E+07 5.28480E+05  8808.0      367.00      1.0048    
1

 Run end date and time (yyyy/mm/dd hh:mm:ss): 2020/04/09  9:11:59
 Elapsed run time:  0.766 Seconds

