                                  MODFLOW-NWT-SWR1 
      U.S. GEOLOGICAL SURVEY MODULAR FINITE-DIFFERENCE GROUNDWATER-FLOW MODEL
                             VERSION 1.1.4 4/01/2018
                    BASED ON MODFLOW-2005 VERSION 1.12.00 02/03/2017

 LIST FILE: pleasant.list
                         UNIT    2

 OPENING pleasant.dis
 FILE TYPE:DIS   UNIT   11   STATUS:OLD    
 FORMAT:FORMATTED              ACCESS:SEQUENTIAL          

 OPENING pleasant.bas
 FILE TYPE:BAS6   UNIT   13   STATUS:OLD    
 FORMAT:FORMATTED              ACCESS:SEQUENTIAL          

 OPENING pleasant.upw
 FILE TYPE:UPW   UNIT   31   STATUS:OLD    
 FORMAT:FORMATTED              ACCESS:SEQUENTIAL          

 OPENING pleasant.rch
 FILE TYPE:RCH   UNIT   19   STATUS:OLD    
 FORMAT:FORMATTED              ACCESS:SEQUENTIAL          

 OPENING pleasant.oc
 FILE TYPE:OC   UNIT   14   STATUS:OLD    
 FORMAT:FORMATTED              ACCESS:SEQUENTIAL          

 OPENING pleasant.sfr
 FILE TYPE:SFR   UNIT   17   STATUS:OLD    
 FORMAT:FORMATTED              ACCESS:SEQUENTIAL          

 OPENING pleasant.wel
 FILE TYPE:WEL   UNIT   20   STATUS:OLD    
 FORMAT:FORMATTED              ACCESS:SEQUENTIAL          

 OPENING pleasant.nwt
 FILE TYPE:NWT   UNIT   32   STATUS:OLD    
 FORMAT:FORMATTED              ACCESS:SEQUENTIAL          

 OPENING pleasant.chd
 FILE TYPE:CHD   UNIT   24   STATUS:OLD    
 FORMAT:FORMATTED              ACCESS:SEQUENTIAL          

 OPENING pleasant.cbc
 FILE TYPE:DATA(BINARY)   UNIT   53   STATUS:REPLACE
 FORMAT:UNFORMATTED            ACCESS:STREAM              

 OPENING pleasant.hds
 FILE TYPE:DATA(BINARY)   UNIT   51   STATUS:REPLACE
 FORMAT:UNFORMATTED            ACCESS:STREAM              

 OPENING pleasant.sfr.out
 FILE TYPE:DATA   UNIT  223   STATUS:UNKNOWN
 FORMAT:FORMATTED              ACCESS:SEQUENTIAL          

 BAS -- BASIC PACKAGE, VERSION 1.1.4, 4/01/2018 INPUT READ FROM UNIT   13

 MODFLOW was compiled using mixed precision
 Precision of REAL variables:           6
 Precision of DOUBLE PRECISION variables:          15

 DISCRETIZATION INPUT DATA READ FROM UNIT   11
 # DIS package for  MODFLOW-NWT, generated by Flopy.
    4 LAYERS        34 ROWS        36 COLUMNS
   85 STRESS PERIOD(S) IN SIMULATION
 MODEL TIME UNIT IS DAYS
 MODEL LENGTH UNIT IS METERS
  Confining bed flag for each layer:
   0   0   0   0

 OPENING FILE ON UNIT   99:
 external/delr.ref                                                                                                                                                                                       



                               DELR
 READING ON UNIT   99 WITH FORMAT: (36E15.6)           

 OPENING FILE ON UNIT   99:
 external/delc.ref                                                                                                                                                                                       



                               DELC
 READING ON UNIT   99 WITH FORMAT: (34E15.6)           

 OPENING FILE ON UNIT   99:
 external/top.dat                                                                                                                                                                                        



           TOP ELEVATION OF LAYER 1
 READING ON UNIT   99 WITH FORMAT: (FREE)              

 OPENING FILE ON UNIT   99:
 external/botm0.dat                                                                                                                                                                                      



             MODEL LAYER BOTTOM EL. FOR LAYER   1
 READING ON UNIT   99 WITH FORMAT: (FREE)              

 OPENING FILE ON UNIT   99:
 external/botm1.dat                                                                                                                                                                                      



             MODEL LAYER BOTTOM EL. FOR LAYER   2
 READING ON UNIT   99 WITH FORMAT: (FREE)              

 OPENING FILE ON UNIT   99:
 external/botm2.dat                                                                                                                                                                                      



             MODEL LAYER BOTTOM EL. FOR LAYER   3
 READING ON UNIT   99 WITH FORMAT: (FREE)              

 OPENING FILE ON UNIT   99:
 external/botm3.dat                                                                                                                                                                                      



             MODEL LAYER BOTTOM EL. FOR LAYER   4
 READING ON UNIT   99 WITH FORMAT: (FREE)              


 STRESS PERIOD     LENGTH       TIME STEPS     MULTIPLIER FOR DELT    SS FLAG
 ----------------------------------------------------------------------------
        1         1.000000          1                    1.000         SS
        2         31.00000          5                    1.500         TR
        3         29.00000          5                    1.500         TR
        4         31.00000          5                    1.500         TR
        5         30.00000          5                    1.500         TR
        6         31.00000          5                    1.500         TR
        7         30.00000          5                    1.500         TR
        8         31.00000          5                    1.500         TR
        9         31.00000          5                    1.500         TR
       10         30.00000          5                    1.500         TR
       11         31.00000          5                    1.500         TR
       12         30.00000          5                    1.500         TR
       13         31.00000          5                    1.500         TR
       14         31.00000          5                    1.500         TR
       15         28.00000          5                    1.500         TR
       16         31.00000          5                    1.500         TR
       17         30.00000          5                    1.500         TR
       18         31.00000          5                    1.500         TR
       19         30.00000          5                    1.500         TR
       20         31.00000          5                    1.500         TR
       21         31.00000          5                    1.500         TR
       22         30.00000          5                    1.500         TR
       23         31.00000          5                    1.500         TR
       24         30.00000          5                    1.500         TR
       25         31.00000          5                    1.500         TR
       26         31.00000          5                    1.500         TR
       27         28.00000          5                    1.500         TR
       28         31.00000          5                    1.500         TR
       29         30.00000          5                    1.500         TR
       30         31.00000          5                    1.500         TR
       31         30.00000          5                    1.500         TR
       32         31.00000          5                    1.500         TR
       33         31.00000          5                    1.500         TR
       34         30.00000          5                    1.500         TR
       35         31.00000          5                    1.500         TR
       36         30.00000          5                    1.500         TR
       37         31.00000          5                    1.500         TR
       38         31.00000          5                    1.500         TR
       39         28.00000          5                    1.500         TR
       40         31.00000          5                    1.500         TR
       41         30.00000          5                    1.500         TR
       42         31.00000          5                    1.500         TR
       43         30.00000          5                    1.500         TR
       44         31.00000          5                    1.500         TR
       45         31.00000          5                    1.500         TR
       46         30.00000          5                    1.500         TR
       47         31.00000          5                    1.500         TR
       48         30.00000          5                    1.500         TR
       49         31.00000          5                    1.500         TR
       50         31.00000          5                    1.500         TR
       51         29.00000          5                    1.500         TR
       52         31.00000          5                    1.500         TR
       53         30.00000          5                    1.500         TR
       54         31.00000          5                    1.500         TR
       55         30.00000          5                    1.500         TR
       56         31.00000          5                    1.500         TR
       57         31.00000          5                    1.500         TR
       58         30.00000          5                    1.500         TR
       59         31.00000          5                    1.500         TR
       60         30.00000          5                    1.500         TR
       61         31.00000          5                    1.500         TR
       62         31.00000          5                    1.500         TR
       63         28.00000          5                    1.500         TR
       64         31.00000          5                    1.500         TR
       65         30.00000          5                    1.500         TR
       66         31.00000          5                    1.500         TR
       67         30.00000          5                    1.500         TR
       68         31.00000          5                    1.500         TR
       69         31.00000          5                    1.500         TR
       70         30.00000          5                    1.500         TR
       71         31.00000          5                    1.500         TR
       72         30.00000          5                    1.500         TR
       73         31.00000          5                    1.500         TR
       74         31.00000          5                    1.500         TR
       75         28.00000          5                    1.500         TR
       76         31.00000          5                    1.500         TR
       77         30.00000          5                    1.500         TR
       78         31.00000          5                    1.500         TR
       79         30.00000          5                    1.500         TR
       80         31.00000          5                    1.500         TR
       81         31.00000          5                    1.500         TR
       82         30.00000          5                    1.500         TR
       83         31.00000          5                    1.500         TR
       84         30.00000          5                    1.500         TR
       85         31.00000          5                    1.500         TR

 COMBINED STEADY-STATE AND TRANSIENT SIMULATION




 # BAS6 package for  MODFLOW-NWT, generated by Flopy.                            
 THE FREE FORMAT OPTION HAS BEEN SELECTED

 OPENING FILE ON UNIT   99:
 external/ibound0.dat                                                                                                                                                                                    



                     BOUNDARY ARRAY FOR LAYER   1
 READING ON UNIT   99 WITH FORMAT: (FREE)              

 OPENING FILE ON UNIT   99:
 external/ibound1.dat                                                                                                                                                                                    



                     BOUNDARY ARRAY FOR LAYER   2
 READING ON UNIT   99 WITH FORMAT: (FREE)              

 OPENING FILE ON UNIT   99:
 external/ibound2.dat                                                                                                                                                                                    



                     BOUNDARY ARRAY FOR LAYER   3
 READING ON UNIT   99 WITH FORMAT: (FREE)              

 OPENING FILE ON UNIT   99:
 external/ibound3.dat                                                                                                                                                                                    



                     BOUNDARY ARRAY FOR LAYER   4
 READING ON UNIT   99 WITH FORMAT: (FREE)              

 AQUIFER HEAD WILL BE SET TO  -9999.0     AT ALL NO-FLOW NODES (IBOUND=0).

 OPENING FILE ON UNIT   99:
 external/strt0.dat                                                                                                                                                                                      



                       INITIAL HEAD FOR LAYER   1
 READING ON UNIT   99 WITH FORMAT: (FREE)              

 OPENING FILE ON UNIT   99:
 external/strt1.dat                                                                                                                                                                                      



                       INITIAL HEAD FOR LAYER   2
 READING ON UNIT   99 WITH FORMAT: (FREE)              

 OPENING FILE ON UNIT   99:
 external/strt2.dat                                                                                                                                                                                      



                       INITIAL HEAD FOR LAYER   3
 READING ON UNIT   99 WITH FORMAT: (FREE)              

 OPENING FILE ON UNIT   99:
 external/strt3.dat                                                                                                                                                                                      



                       INITIAL HEAD FOR LAYER   4
 READING ON UNIT   99 WITH FORMAT: (FREE)              
 # OC package for  MODFLOW-NWT, generated by Flopy.

 OUTPUT CONTROL IS SPECIFIED ONLY AT TIME STEPS FOR WHICH OUTPUT IS DESIRED
 COMPACT CELL-BY-CELL BUDGET FILES WILL BE WRITTEN
 AUXILIARY DATA WILL BE SAVED IN CELL-BY-CELL BUDGET FILES
 HEAD PRINT FORMAT CODE IS   0    DRAWDOWN PRINT FORMAT CODE IS   0
 HEADS WILL BE SAVED ON UNIT   51    DRAWDOWNS WILL BE SAVED ON UNIT    0
 # NWT package for  MODFLOW-NWT, generated by Flopy.

 NWT1 -- Newton Solver, VERSION 1.1.4, 4/01/2018
         INPUT READ FROM UNIT 32

 SPECIFIED OPTION:
 SOLVER INPUT VALUES ARE SPECIFIED BY USER
 ***XMD linear solver will be used***

   CONVERGENCE CRITERION OF   0.100000E-01 FOR HEAD SOLUTION
   AND A TOLERANCE OF   0.600000E+04 FOR FLOW SOLUTION AND 
   A MAXIMUM OF  1000 OUTER ITERATIONS. 


   D-B-D REDUCTION FACTOR OF    0.900000E+00 AND 
   A D-B-D INCREASE FACTOR OF    0.100000E-04 AND 
   A D-B-D RELAXATION OF    0.000000E+00 AND 
   A MOMENTUM FACTOR OF    0.000000E+00 .


 ***BACKTRACKING IS INACTIVE***
 XMD -- LINEAR SOLUTION BY XMD PACKAGE VERSION 1.30
     BY MOTOMU IBARAKI, OHIO STATE UNIVERSITY, COLOMBUS, OH
                 INPUT READ FROM UNIT 32
 ACCELERATION METHOD                    (IACL) =         2
 NODE ORDERING FLAG                   (NORDER) =         0
 LEVEL OF FILL                         (LEVEL) =         7
 MAXIMUM NUMBER OF ORTHOGONALIZATIONS  (NORTH) =         7
 INDEX FOR USING REDUCED SYSTEM      (IREDSYS) =         0
 RESID. REDUCTION CONVERGE CRITERION  (RRCTOL) =  0.000000E+00
 INDEX FOR USING DROP TOLERANCE     (IDROPTOL) =         1
 DROP TOLERANCE VALUE                  (EPSRN) =  0.100000E-01
 CONVERGENCE CRITERIA OF           (HCLOSEXMD) =  0.100000E-03
 MAX. NUMBER OF LINEAR ITERATIONS  (MXITERXMD) =        85


 UPW1 -- UPSTREAM WEIGHTING FLOW PACKAGE, VERSION 1.1.4, 4/01/2018
         INPUT READ FROM UNIT 31

 # UPW package for  MODFLOW-NWT, generated by Flopy.
 CELL-BY-CELL FLOWS WILL BE SAVED ON UNIT   53
 No named parameters

   LAYER FLAGS:
 LAYER       LAYTYP          LAYAVG    CHANI           LAYVKA           LAYWET
 ---------------------------------------------------------------------------
    1             1             0     1.000E+00             0             0
    2             1             0     1.000E+00             0             0
    3             1             0     1.000E+00             0             0
    4             1             0     1.000E+00             0             0

   INTERPRETATION OF LAYER FLAGS:
                        INTERBLOCK     HORIZONTAL    DATA IN
         LAYER TYPE   TRANSMISSIVITY   ANISOTROPY   ARRAY VKA   WETTABILITY
 LAYER   (LAYTYP)        (LAYAVG)      (CHANI)     (LAYVKA)       (LAYWET)
 ---------------------------------------------------------------------------
    1   CONVERTIBLE      HARMONIC     1.000E+00    VERTICAL K  NON-WETTABLE
    2   CONVERTIBLE      HARMONIC     1.000E+00    VERTICAL K  NON-WETTABLE
    3   CONVERTIBLE      HARMONIC     1.000E+00    VERTICAL K  NON-WETTABLE
    4   CONVERTIBLE      HARMONIC     1.000E+00    VERTICAL K  NON-WETTABLE

 OPENING FILE ON UNIT   99:
 external/hk0.dat                                                                                                                                                                                        



              HYD. COND. ALONG ROWS FOR LAYER   1
 READING ON UNIT   99 WITH FORMAT: (FREE)              

 OPENING FILE ON UNIT   99:
 external/vka0.dat                                                                                                                                                                                       



                VERTICAL HYD. COND. FOR LAYER   1
 READING ON UNIT   99 WITH FORMAT: (FREE)              

 OPENING FILE ON UNIT   99:
 external/ss0.dat                                                                                                                                                                                        



                   SPECIFIC STORAGE FOR LAYER   1
 READING ON UNIT   99 WITH FORMAT: (FREE)              

 OPENING FILE ON UNIT   99:
 external/sy0.dat                                                                                                                                                                                        



                     SPECIFIC YIELD FOR LAYER   1
 READING ON UNIT   99 WITH FORMAT: (FREE)              

 OPENING FILE ON UNIT   99:
 external/hk1.dat                                                                                                                                                                                        



              HYD. COND. ALONG ROWS FOR LAYER   2
 READING ON UNIT   99 WITH FORMAT: (FREE)              

 OPENING FILE ON UNIT   99:
 external/vka1.dat                                                                                                                                                                                       



                VERTICAL HYD. COND. FOR LAYER   2
 READING ON UNIT   99 WITH FORMAT: (FREE)              

 OPENING FILE ON UNIT   99:
 external/ss1.dat                                                                                                                                                                                        



                   SPECIFIC STORAGE FOR LAYER   2
 READING ON UNIT   99 WITH FORMAT: (FREE)              

 OPENING FILE ON UNIT   99:
 external/sy1.dat                                                                                                                                                                                        



                     SPECIFIC YIELD FOR LAYER   2
 READING ON UNIT   99 WITH FORMAT: (FREE)              

 OPENING FILE ON UNIT   99:
 external/hk2.dat                                                                                                                                                                                        



              HYD. COND. ALONG ROWS FOR LAYER   3
 READING ON UNIT   99 WITH FORMAT: (FREE)              

 OPENING FILE ON UNIT   99:
 external/vka2.dat                                                                                                                                                                                       



                VERTICAL HYD. COND. FOR LAYER   3
 READING ON UNIT   99 WITH FORMAT: (FREE)              

 OPENING FILE ON UNIT   99:
 external/ss2.dat                                                                                                                                                                                        



                   SPECIFIC STORAGE FOR LAYER   3
 READING ON UNIT   99 WITH FORMAT: (FREE)              

 OPENING FILE ON UNIT   99:
 external/sy2.dat                                                                                                                                                                                        



                     SPECIFIC YIELD FOR LAYER   3
 READING ON UNIT   99 WITH FORMAT: (FREE)              

 OPENING FILE ON UNIT   99:
 external/hk3.dat                                                                                                                                                                                        



              HYD. COND. ALONG ROWS FOR LAYER   4
 READING ON UNIT   99 WITH FORMAT: (FREE)              

 OPENING FILE ON UNIT   99:
 external/vka3.dat                                                                                                                                                                                       



                VERTICAL HYD. COND. FOR LAYER   4
 READING ON UNIT   99 WITH FORMAT: (FREE)              

 OPENING FILE ON UNIT   99:
 external/ss3.dat                                                                                                                                                                                        



                   SPECIFIC STORAGE FOR LAYER   4
 READING ON UNIT   99 WITH FORMAT: (FREE)              

 OPENING FILE ON UNIT   99:
 external/sy3.dat                                                                                                                                                                                        



                     SPECIFIC YIELD FOR LAYER   4
 READING ON UNIT   99 WITH FORMAT: (FREE)              

 WEL -- WELL PACKAGE FOR NWT VERSION 1.1.4,  4/01/2018 INPUT READ FROM UNIT   20
 # WEL package for  MODFLOW-NWT, generated by Flopy.
 No named parameters
 MAXIMUM OF     11 ACTIVE WELLS AT ONE TIME
 CELL-BY-CELL FLOWS WILL BE SAVED ON UNIT   53
 No named parameters
  PHIRAMP WILL BE SET TO A DEFAULT VALUE OF 1.0E-5
  WELLS WITH REDUCED PUMPING WILL BE REPORTED TO THE MAIN LISTING FILE


     0 Well parameters

 RCH -- RECHARGE PACKAGE, VERSION 7, 5/2/2005 INPUT READ FROM UNIT   19
 # RCH package for  MODFLOW-NWT, generated by Flopy.
 No named parameters
 OPTION 3 -- RECHARGE TO HIGHEST ACTIVE NODE IN EACH VERTICAL COLUMN
 CELL-BY-CELL FLOWS WILL BE SAVED ON UNIT   53


     0 Recharge parameters

 CHD -- TIME-VARIANT SPECIFIED-HEAD OPTION, VERSION 7, 5/2/2005
 INPUT READ FROM UNIT   24
 # CHD package for  MODFLOW-NWT, generated by Flopy.
 No named parameters
 MAXIMUM OF    544 TIME-VARIANT SPECIFIED-HEAD CELLS AT ONE TIME


     0 TIME-VARIANT SPECIFIED-HEAD PARAMETERS

 SFR7 -- STREAMFLOW ROUTING PACKAGE, VERSION 1.0.5, 2012-04-05
         INPUT READ FROM UNIT  17
 # SFR package for  MODFLOW-NWT, generated by Flopy.
 No named parameters


 NUMBER OF STREAM REACHES IS   42

 NUMBER OF STREAM SEGMENTS IS    2

 NUMBER OF STREAM PARAMETERS IS    0

 NUMBER OF STREAM SEGMENTS DEFINED USING PARAMETERS IS              0

 MAXIMUM ERROR FOR STREAM LEAKAGE RATES IS  1.00E-04

 CONSTANT FOR MANNINGS EQUATION IS  8.6400E+04





 USING DATA INPUT MODIFIED FROM ORIGINAL SFR PROGRAM FOR FARM PACKAGE

 STREAM OUTPUT WILL BE WRITTEN TO FILE ON UNIT  223


   STREAM NETWORK DESCRIPTION: 

   LAYER    ROW    COL   SEGMENT   REACH     LENGTH     STREAMBED     STREAMBED   STREAMBED     STREAMBED
                          NUMBER   NUMBER    IN CELL    TOP ELEV.       SLOPE     THICKNESS   HYDR. CONDUCT.        
   ---------------------------------------------------------------------------------------------------------
       1     17     23       1        1    3.7851E+01   2.9658E+02   1.8526E-02   1.0000E+00   1.0000E+00
       1     16     23       1        2    6.1819E+01   2.9658E+02   3.1852E-02   1.0000E+00   1.0000E+00
       1     16     24       1        3    2.1805E+02   2.9658E+02   1.4767E-02   1.0000E+00   1.0000E+00
       1     16     25       1        4    2.3963E+02   2.9590E+02   1.3233E-02   1.0000E+00   1.0000E+00
       1     16     26       1        5    2.1110E+02   2.9484E+02   1.3426E-02   1.0000E+00   1.0000E+00
       1     16     27       1        6    1.9173E+02   2.9390E+02   7.5448E-03   1.0000E+00   1.0000E+00
       1     17     27       1        7    1.3876E+01   2.9387E+02   1.1823E-01   1.0000E+00   1.0000E+00
       1     17     28       1        8    2.1931E+02   2.9275E+02   1.3542E-02   1.0000E+00   1.0000E+00
       1     17     29       1        9    2.0281E+02   2.9168E+02   1.4025E-02   1.0000E+00   1.0000E+00
       1     17     30       1       10    2.0148E+02   2.9061E+02   1.4225E-02   1.0000E+00   1.0000E+00
       1     17     31       1       11    2.0590E+02   2.8926E+02   1.4007E-02   1.0000E+00   1.0000E+00
       1     17     32       1       12    2.0402E+02   2.8779E+02   1.0025E-02   1.0000E+00   1.0000E+00
       1     17     33       1       13    8.6696E+01   2.8699E+02   1.7609E-02   1.0000E+00   1.0000E+00
       1     16     33       1       14    1.3029E+02   2.8617E+02   1.8768E-02   1.0000E+00   1.0000E+00
       1     16     34       1       15    2.1727E+02   2.8472E+02   1.3799E-02   1.0000E+00   1.0000E+00
       1     16     35       1       16    2.0886E+02   2.8341E+02   1.5299E-02   1.0000E+00   1.0000E+00
       1     16     36       1       17    2.4530E+02   2.8217E+02   1.0000E-03   1.0000E+00   1.0000E+00
       3     24     21       2        1    7.0648E+01   2.9018E+02   6.8424E-03   1.0000E+00   1.0000E+00
       4     25     21       2        2    5.5786E+01   2.9018E+02   1.9184E-02   1.0000E+00   1.0000E+00
       4     25     22       2        3    2.2413E+02   2.9018E+02   7.3029E-03   1.0000E+00   1.0000E+00
       4     26     22       2        4    2.0397E+02   2.9018E+02   6.5026E-03   1.0000E+00   1.0000E+00
       4     27     22       2        5    1.4293E+02   2.9018E+02   5.6999E-03   1.0000E+00   1.0000E+00
       4     27     23       2        6    7.0154E+01   2.9018E+02   1.7470E-02   1.0000E+00   1.0000E+00
       4     28     23       2        7    2.5040E+02   2.9018E+02   6.3928E-03   1.0000E+00   1.0000E+00
       4     28     24       2        8    1.6828E+02   2.9018E+02   5.2911E-03   1.0000E+00   1.0000E+00
       4     29     24       2        9    6.4600E+01   2.9018E+02   1.4886E-02   1.0000E+00   1.0000E+00
       4     29     25       2       10    1.8691E+02   2.8929E+02   1.0067E-02   1.0000E+00   1.0000E+00
       1     30     25       2       11    3.0524E+02   2.8865E+02   6.3470E-03   1.0000E+00   1.0000E+00
       1     30     26       2       12    2.0147E+02   2.8820E+02   8.0813E-03   1.0000E+00   1.0000E+00
       1     30     27       2       13    2.2437E+02   2.8764E+02   7.4131E-03   1.0000E+00   1.0000E+00
       1     30     28       2       14    2.1066E+02   2.8721E+02   7.8902E-03   1.0000E+00   1.0000E+00
       1     30     29       2       15    2.2408E+02   2.8675E+02   4.6215E-03   1.0000E+00   1.0000E+00
       1     31     29       2       16    4.6778E+01   2.8663E+02   2.3220E-02   1.0000E+00   1.0000E+00
       1     31     30       2       17    2.3732E+02   2.8608E+02   5.1168E-03   1.0000E+00   1.0000E+00
       1     31     31       2       18    8.0287E+01   2.8591E+02   1.0471E-02   1.0000E+00   1.0000E+00
       1     32     31       2       19    1.3960E+02   2.8559E+02   9.3441E-03   1.0000E+00   1.0000E+00
       1     32     32       2       20    2.0158E+02   2.8515E+02   7.6637E-03   1.0000E+00   1.0000E+00
       1     32     33       2       21    2.0248E+02   2.8467E+02   5.5191E-03   1.0000E+00   1.0000E+00
       1     32     34       2       22    8.9800E+01   2.8452E+02   9.8147E-03   1.0000E+00   1.0000E+00
       1     31     34       2       23    1.4072E+02   2.8417E+02   9.5159E-03   1.0000E+00   1.0000E+00
       1     31     35       2       24    2.0952E+02   2.8365E+02   7.6229E-03   1.0000E+00   1.0000E+00
       1     31     36       2       25    2.0821E+02   2.8330E+02   1.0000E-03   1.0000E+00   1.0000E+00



1
                            STRESS PERIOD NO.    1, LENGTH =   1.000000    
                            -----------------------------------------------

                              NUMBER OF TIME STEPS =     1

                               MULTIPLIER FOR DELT =     1.000

                            INITIAL TIME STEP SIZE =   1.000000    

 OPENING FILE ON UNIT   99:
 external/WEL_0000.dat                                                                                                                                                                                   

 WELL NO.  LAYER   ROW   COL   STRESS RATE         
 --------------------------------------------------
      1      4     13     24       0.000    
      2      4      1      5      -324.7    
      3      3     25     28      -91.00    
      4      3      6      3      -659.9    
      5      3      4      5      -446.8    
      6      3     10      3      -653.6    
      7      3     14      3      -676.1    
      8      3     14     29      -1359.    
      9      3     18      3       0.000    
     10      4     14     15       0.000    
     11      4     34     14      -45.90    

     11 WELLS

 OPENING FILE ON UNIT   99:
 external/finf0.dat                                                                                                                                                                                      



                           RECHARGE
 READING ON UNIT   99 WITH FORMAT: (FREE)              

 OPENING FILE ON UNIT   99:
 external/CHD_0000.dat                                                                                                                                                                                   

 CHD NO.   LAYER   ROW   COL    START HEAD        END HEAD         
 ------------------------------------------------------------------
      1      1      1      1       314.6           314.6    
      2      1      1      2       314.5           314.5    
      3      1      1      3       314.4           314.4    
      4      1      1      4       314.3           314.3    
      5      1      1      5       314.1           314.1    
      6      1      1      6       314.1           314.1    
      7      1      1      7       313.9           313.9    
      8      1      1      8       313.8           313.8    
      9      1      1      9       313.5           313.5    
     10      1      1     10       313.2           313.2    
     11      1      1     11       312.9           312.9    
     12      1      1     12       312.5           312.5    
     13      1      1     13       312.0           312.0    
     14      1      1     14       311.5           311.5    
     15      1      1     15       310.9           310.9    
     16      1      1     16       310.3           310.3    
     17      1      1     17       309.7           309.7    
     18      1      1     18       309.0           309.0    
     19      1      1     19       308.3           308.3    
     20      1      1     20       307.5           307.5    
     21      1      1     21       306.6           306.6    
     22      1      1     22       305.8           305.8    
     23      1      1     23       305.0           305.0    
     24      1      1     24       304.2           304.2    
     25      1      1     25       303.5           303.5    
     26      1      1     26       302.8           302.8    
     27      1      1     27       302.2           302.2    
     28      1      1     28       301.5           301.5    
     29      1      1     29       300.8           300.8    
     30      1      1     30       300.2           300.2    
     31      1      1     31       299.5           299.5    
     32      1      1     32       298.9           298.9    
     33      1      1     33       298.2           298.2    
     34      1      1     34       297.5           297.5    
     35      1      1     35       296.8           296.8    
     36      1      1     36       296.0           296.0    
     37      1      2      1       314.4           314.4    
     38      1      3      1       314.3           314.3    
     39      1      4      1       314.1           314.1    
     40      1      5      1       313.9           313.9    
     41      1      6      1       313.7           313.7    
     42      1      7      1       313.5           313.5    
     43      1      8      1       313.4           313.4    
     44      1      9      1       313.2           313.2    
     45      1     10      1       313.0           313.0    
     46      1     11      1       312.8           312.8    
     47      1     12      1       312.7           312.7    
     48      1     13      1       312.5           312.5    
     49      1     14      1       312.3           312.3    
     50      1     15      1       312.1           312.1    
     51      1     16      1       311.9           311.9    
     52      1     17      1       311.7           311.7    
     53      1     18      1       311.5           311.5    
     54      1     19      1       311.3           311.3    
     55      1     20      1       311.1           311.1    
     56      1     21      1       310.9           310.9    
     57      1     22      1       310.6           310.6    
     58      1     23      1       310.2           310.2    
     59      1     24      1       309.9           309.9    
     60      1     25      1       309.6           309.6    
     61      1     26      1       309.2           309.2    
     62      1     27      1       308.7           308.7    
     63      1     28      1       308.3           308.3    
     64      1     29      1       307.9           307.9    
     65      1     30      1       307.4           307.4    
     66      1     31      1       307.0           307.0    
     67      1     32      1       306.5           306.5    
     68      1     33      1       306.1           306.1    
     69      1      2     36       295.2           295.2    
     70      1      3     36       294.5           294.5    
     71      1      4     36       293.8           293.8    
     72      1      5     36       293.1           293.1    
     73      1      6     36       292.4           292.4    
     74      1      7     36       291.8           291.8    
     75      1      8     36       291.1           291.1    
     76      1      9     36       290.4           290.4    
     77      1     10     36       289.6           289.6    
     78      1     11     36       288.9           288.9    
     79      1     12     36       288.1           288.1    
     80      1     13     36       287.2           287.2    
     81      1     14     36       286.2           286.2    
     82      1     15     36       284.9           284.9    
     83      1     16     36       283.2           283.2    
     84      1     17     36       283.6           283.6    
     85      1     18     36       284.0           284.0    
     86      1     19     36       284.2           284.2    
     87      1     20     36       284.4           284.4    
     88      1     21     36       284.6           284.6    
     89      1     22     36       284.7           284.7    
     90      1     23     36       284.8           284.8    
     91      1     24     36       284.8           284.8    
     92      1     25     36       284.8           284.8    
     93      1     26     36       284.7           284.7    
     94      1     27     36       284.5           284.5    
     95      1     28     36       284.3           284.3    
     96      1     29     36       284.1           284.1    
     97      1     30     36       283.8           283.8    
     98      1     31     36       283.4           283.4    
     99      1     32     36       283.2           283.2    
    100      1     33     36       282.7           282.7    
    101      1     34      1       305.7           305.7    
    102      1     34      2       305.3           305.3    
    103      1     34      3       304.9           304.9    
    104      1     34      4       304.5           304.5    
    105      1     34      5       303.9           303.9    
    106      1     34      6       303.3           303.3    
    107      1     34      7       302.7           302.7    
    108      1     34      8       302.0           302.0    
    109      1     34      9       301.3           301.3    
    110      1     34     10       300.6           300.6    
    111      1     34     11       299.8           299.8    
    112      1     34     12       298.9           298.9    
    113      1     34     13       298.0           298.0    
    114      1     34     14       297.1           297.1    
    115      1     34     15       295.9           295.9    
    116      1     34     16       294.6           294.6    
    117      1     34     17       293.7           293.7    
    118      1     34     18       292.9           292.9    
    119      1     34     19       292.2           292.2    
    120      1     34     20       291.5           291.5    
    121      1     34     21       290.9           290.9    
    122      1     34     22       290.3           290.3    
    123      1     34     23       289.6           289.6    
    124      1     34     24       289.0           289.0    
    125      1     34     25       288.4           288.4    
    126      1     34     26       287.8           287.8    
    127      1     34     27       287.2           287.2    
    128      1     34     28       286.6           286.6    
    129      1     34     29       286.1           286.1    
    130      1     34     30       285.5           285.5    
    131      1     34     31       285.0           285.0    
    132      1     34     32       284.4           284.4    
    133      1     34     33       283.9           283.9    
    134      1     34     34       283.3           283.3    
    135      1     34     35       282.7           282.7    
    136      1     34     36       282.1           282.1    
    137      2      1      1       314.6           314.6    
    138      2      1      2       314.5           314.5    
    139      2      1      3       314.4           314.4    
    140      2      1      4       314.3           314.3    
    141      2      1      5       314.1           314.1    
    142      2      1      6       314.1           314.1    
    143      2      1      7       313.9           313.9    
    144      2      1      8       313.8           313.8    
    145      2      1      9       313.5           313.5    
    146      2      1     10       313.2           313.2    
    147      2      1     11       312.8           312.8    
    148      2      1     12       312.5           312.5    
    149      2      1     13       312.0           312.0    
    150      2      1     14       311.5           311.5    
    151      2      1     15       310.9           310.9    
    152      2      1     16       310.3           310.3    
    153      2      1     17       309.7           309.7    
    154      2      1     18       309.0           309.0    
    155      2      1     19       308.3           308.3    
    156      2      1     20       307.4           307.4    
    157      2      1     21       306.6           306.6    
    158      2      1     22       305.8           305.8    
    159      2      1     23       305.0           305.0    
    160      2      1     24       304.2           304.2    
    161      2      1     25       303.5           303.5    
    162      2      1     26       302.8           302.8    
    163      2      1     27       302.2           302.2    
    164      2      1     28       301.5           301.5    
    165      2      1     29       300.8           300.8    
    166      2      1     30       300.2           300.2    
    167      2      1     31       299.5           299.5    
    168      2      1     32       298.9           298.9    
    169      2      1     33       298.2           298.2    
    170      2      1     34       297.5           297.5    
    171      2      1     35       296.8           296.8    
    172      2      1     36       296.0           296.0    
    173      2      2      1       314.4           314.4    
    174      2      3      1       314.3           314.3    
    175      2      4      1       314.1           314.1    
    176      2      5      1       313.9           313.9    
    177      2      6      1       313.7           313.7    
    178      2      7      1       313.5           313.5    
    179      2      8      1       313.4           313.4    
    180      2      9      1       313.2           313.2    
    181      2     10      1       313.0           313.0    
    182      2     11      1       312.8           312.8    
    183      2     12      1       312.7           312.7    
    184      2     13      1       312.5           312.5    
    185      2     14      1       312.3           312.3    
    186      2     15      1       312.1           312.1    
    187      2     16      1       311.9           311.9    
    188      2     17      1       311.7           311.7    
    189      2     18      1       311.5           311.5    
    190      2     19      1       311.3           311.3    
    191      2     20      1       311.1           311.1    
    192      2     21      1       310.9           310.9    
    193      2     22      1       310.6           310.6    
    194      2     23      1       310.2           310.2    
    195      2     24      1       309.9           309.9    
    196      2     25      1       309.6           309.6    
    197      2     26      1       309.2           309.2    
    198      2     27      1       308.7           308.7    
    199      2     28      1       308.3           308.3    
    200      2     29      1       307.9           307.9    
    201      2     30      1       307.4           307.4    
    202      2     31      1       307.0           307.0    
    203      2     32      1       306.5           306.5    
    204      2     33      1       306.1           306.1    
    205      2      2     36       295.2           295.2    
    206      2      3     36       294.5           294.5    
    207      2      4     36       293.8           293.8    
    208      2      5     36       293.1           293.1    
    209      2      6     36       292.4           292.4    
    210      2      7     36       291.8           291.8    
    211      2      8     36       291.1           291.1    
    212      2      9     36       290.4           290.4    
    213      2     10     36       289.6           289.6    
    214      2     11     36       288.9           288.9    
    215      2     12     36       288.1           288.1    
    216      2     13     36       287.2           287.2    
    217      2     14     36       286.2           286.2    
    218      2     15     36       284.9           284.9    
    219      2     16     36       283.2           283.2    
    220      2     17     36       283.6           283.6    
    221      2     18     36       284.0           284.0    
    222      2     19     36       284.2           284.2    
    223      2     20     36       284.4           284.4    
    224      2     21     36       284.6           284.6    
    225      2     22     36       284.7           284.7    
    226      2     23     36       284.8           284.8    
    227      2     24     36       284.8           284.8    
    228      2     25     36       284.8           284.8    
    229      2     26     36       284.7           284.7    
    230      2     27     36       284.5           284.5    
    231      2     28     36       284.3           284.3    
    232      2     29     36       284.1           284.1    
    233      2     30     36       283.8           283.8    
    234      2     31     36       283.5           283.5    
    235      2     32     36       283.2           283.2    
    236      2     33     36       282.7           282.7    
    237      2     34      1       305.7           305.7    
    238      2     34      2       305.3           305.3    
    239      2     34      3       304.9           304.9    
    240      2     34      4       304.5           304.5    
    241      2     34      5       303.9           303.9    
    242      2     34      6       303.3           303.3    
    243      2     34      7       302.7           302.7    
    244      2     34      8       302.0           302.0    
    245      2     34      9       301.3           301.3    
    246      2     34     10       300.6           300.6    
    247      2     34     11       299.8           299.8    
    248      2     34     12       298.9           298.9    
    249      2     34     13       298.0           298.0    
    250      2     34     14       297.1           297.1    
    251      2     34     15       295.9           295.9    
    252      2     34     16       294.6           294.6    
    253      2     34     17       293.7           293.7    
    254      2     34     18       292.9           292.9    
    255      2     34     19       292.2           292.2    
    256      2     34     20       291.5           291.5    
    257      2     34     21       290.9           290.9    
    258      2     34     22       290.3           290.3    
    259      2     34     23       289.6           289.6    
    260      2     34     24       289.0           289.0    
    261      2     34     25       288.4           288.4    
    262      2     34     26       287.8           287.8    
    263      2     34     27       287.2           287.2    
    264      2     34     28       286.6           286.6    
    265      2     34     29       286.1           286.1    
    266      2     34     30       285.5           285.5    
    267      2     34     31       285.0           285.0    
    268      2     34     32       284.4           284.4    
    269      2     34     33       283.9           283.9    
    270      2     34     34       283.3           283.3    
    271      2     34     35       282.7           282.7    
    272      2     34     36       282.1           282.1    
    273      3      1      1       314.6           314.6    
    274      3      1      2       314.5           314.5    
    275      3      1      3       314.4           314.4    
    276      3      1      4       314.3           314.3    
    277      3      1      5       314.1           314.1    
    278      3      1      6       314.0           314.0    
    279      3      1      7       313.9           313.9    
    280      3      1      8       313.8           313.8    
    281      3      1      9       313.5           313.5    
    282      3      1     10       313.2           313.2    
    283      3      1     11       312.8           312.8    
    284      3      1     12       312.5           312.5    
    285      3      1     13       312.0           312.0    
    286      3      1     14       311.5           311.5    
    287      3      1     15       310.9           310.9    
    288      3      1     16       310.3           310.3    
    289      3      1     17       309.7           309.7    
    290      3      1     18       309.0           309.0    
    291      3      1     19       308.2           308.2    
    292      3      1     20       307.4           307.4    
    293      3      1     21       306.6           306.6    
    294      3      1     22       305.8           305.8    
    295      3      1     23       305.0           305.0    
    296      3      1     24       304.2           304.2    
    297      3      1     25       303.5           303.5    
    298      3      1     26       302.8           302.8    
    299      3      1     27       302.2           302.2    
    300      3      1     28       301.5           301.5    
    301      3      1     29       300.8           300.8    
    302      3      1     30       300.2           300.2    
    303      3      1     31       299.5           299.5    
    304      3      1     32       298.9           298.9    
    305      3      1     33       298.2           298.2    
    306      3      1     34       297.5           297.5    
    307      3      1     35       296.8           296.8    
    308      3      1     36       296.0           296.0    
    309      3      2      1       314.4           314.4    
    310      3      3      1       314.3           314.3    
    311      3      4      1       314.1           314.1    
    312      3      5      1       313.9           313.9    
    313      3      6      1       313.7           313.7    
    314      3      7      1       313.5           313.5    
    315      3      8      1       313.4           313.4    
    316      3      9      1       313.2           313.2    
    317      3     10      1       313.0           313.0    
    318      3     11      1       312.8           312.8    
    319      3     12      1       312.7           312.7    
    320      3     13      1       312.5           312.5    
    321      3     14      1       312.3           312.3    
    322      3     15      1       312.1           312.1    
    323      3     16      1       311.9           311.9    
    324      3     17      1       311.7           311.7    
    325      3     18      1       311.5           311.5    
    326      3     19      1       311.3           311.3    
    327      3     20      1       311.1           311.1    
    328      3     21      1       310.9           310.9    
    329      3     22      1       310.6           310.6    
    330      3     23      1       310.2           310.2    
    331      3     24      1       309.9           309.9    
    332      3     25      1       309.6           309.6    
    333      3     26      1       309.2           309.2    
    334      3     27      1       308.7           308.7    
    335      3     28      1       308.3           308.3    
    336      3     29      1       307.9           307.9    
    337      3     30      1       307.4           307.4    
    338      3     31      1       307.0           307.0    
    339      3     32      1       306.5           306.5    
    340      3     33      1       306.1           306.1    
    341      3      2     36       295.2           295.2    
    342      3      3     36       294.5           294.5    
    343      3      4     36       293.8           293.8    
    344      3      5     36       293.1           293.1    
    345      3      6     36       292.4           292.4    
    346      3      7     36       291.8           291.8    
    347      3      8     36       291.1           291.1    
    348      3      9     36       290.4           290.4    
    349      3     10     36       289.6           289.6    
    350      3     11     36       288.9           288.9    
    351      3     12     36       288.1           288.1    
    352      3     13     36       287.2           287.2    
    353      3     14     36       286.2           286.2    
    354      3     15     36       284.9           284.9    
    355      3     16     36       283.3           283.3    
    356      3     17     36       283.6           283.6    
    357      3     18     36       284.0           284.0    
    358      3     19     36       284.2           284.2    
    359      3     20     36       284.4           284.4    
    360      3     21     36       284.6           284.6    
    361      3     22     36       284.7           284.7    
    362      3     23     36       284.8           284.8    
    363      3     24     36       284.8           284.8    
    364      3     25     36       284.8           284.8    
    365      3     26     36       284.7           284.7    
    366      3     27     36       284.5           284.5    
    367      3     28     36       284.3           284.3    
    368      3     29     36       284.1           284.1    
    369      3     30     36       283.8           283.8    
    370      3     31     36       283.5           283.5    
    371      3     32     36       283.2           283.2    
    372      3     33     36       282.7           282.7    
    373      3     34      1       305.7           305.7    
    374      3     34      2       305.3           305.3    
    375      3     34      3       304.9           304.9    
    376      3     34      4       304.5           304.5    
    377      3     34      5       303.9           303.9    
    378      3     34      6       303.3           303.3    
    379      3     34      7       302.7           302.7    
    380      3     34      8       302.0           302.0    
    381      3     34      9       301.3           301.3    
    382      3     34     10       300.6           300.6    
    383      3     34     11       299.8           299.8    
    384      3     34     12       298.9           298.9    
    385      3     34     13       298.0           298.0    
    386      3     34     14       297.0           297.0    
    387      3     34     15       295.9           295.9    
    388      3     34     16       294.6           294.6    
    389      3     34     17       293.7           293.7    
    390      3     34     18       292.9           292.9    
    391      3     34     19       292.2           292.2    
    392      3     34     20       291.5           291.5    
    393      3     34     21       290.9           290.9    
    394      3     34     22       290.3           290.3    
    395      3     34     23       289.6           289.6    
    396      3     34     24       289.0           289.0    
    397      3     34     25       288.4           288.4    
    398      3     34     26       287.8           287.8    
    399      3     34     27       287.2           287.2    
    400      3     34     28       286.6           286.6    
    401      3     34     29       286.1           286.1    
    402      3     34     30       285.5           285.5    
    403      3     34     31       285.0           285.0    
    404      3     34     32       284.4           284.4    
    405      3     34     33       283.9           283.9    
    406      3     34     34       283.3           283.3    
    407      3     34     35       282.7           282.7    
    408      3     34     36       282.1           282.1    
    409      4      1      1       314.5           314.5    
    410      4      1      2       314.5           314.5    
    411      4      1      3       314.4           314.4    
    412      4      1      4       314.2           314.2    
    413      4      1      5       313.9           313.9    
    414      4      1      6       314.0           314.0    
    415      4      1      7       313.9           313.9    
    416      4      1      8       313.7           313.7    
    417      4      1      9       313.4           313.4    
    418      4      1     10       313.1           313.1    
    419      4      1     11       312.8           312.8    
    420      4      1     12       312.4           312.4    
    421      4      1     13       311.9           311.9    
    422      4      1     14       311.4           311.4    
    423      4      1     15       310.9           310.9    
    424      4      1     16       310.3           310.3    
    425      4      1     17       309.6           309.6    
    426      4      1     18       308.9           308.9    
    427      4      1     19       308.2           308.2    
    428      4      1     20       307.4           307.4    
    429      4      1     21       306.6           306.6    
    430      4      1     22       305.8           305.8    
    431      4      1     23       305.0           305.0    
    432      4      1     24       304.2           304.2    
    433      4      1     25       303.5           303.5    
    434      4      1     26       302.8           302.8    
    435      4      1     27       302.1           302.1    
    436      4      1     28       301.5           301.5    
    437      4      1     29       300.8           300.8    
    438      4      1     30       300.2           300.2    
    439      4      1     31       299.5           299.5    
    440      4      1     32       298.9           298.9    
    441      4      1     33       298.2           298.2    
    442      4      1     34       297.5           297.5    
    443      4      1     35       296.7           296.7    
    444      4      1     36       296.0           296.0    
    445      4      2      1       314.4           314.4    
    446      4      3      1       314.2           314.2    
    447      4      4      1       314.0           314.0    
    448      4      5      1       313.8           313.8    
    449      4      6      1       313.6           313.6    
    450      4      7      1       313.5           313.5    
    451      4      8      1       313.3           313.3    
    452      4      9      1       313.1           313.1    
    453      4     10      1       313.0           313.0    
    454      4     11      1       312.8           312.8    
    455      4     12      1       312.6           312.6    
    456      4     13      1       312.4           312.4    
    457      4     14      1       312.2           312.2    
    458      4     15      1       312.0           312.0    
    459      4     16      1       311.9           311.9    
    460      4     17      1       311.6           311.6    
    461      4     18      1       311.4           311.4    
    462      4     19      1       311.2           311.2    
    463      4     20      1       311.0           311.0    
    464      4     21      1       310.8           310.8    
    465      4     22      1       310.5           310.5    
    466      4     23      1       310.2           310.2    
    467      4     24      1       309.8           309.8    
    468      4     25      1       309.5           309.5    
    469      4     26      1       309.0           309.0    
    470      4     27      1       308.6           308.6    
    471      4     28      1       308.2           308.2    
    472      4     29      1       307.8           307.8    
    473      4     30      1       307.3           307.3    
    474      4     31      1       306.9           306.9    
    475      4     32      1       306.5           306.5    
    476      4     33      1       306.0           306.0    
    477      4      2     36       295.3           295.3    
    478      4      3     36       294.5           294.5    
    479      4      4     36       293.8           293.8    
    480      4      5     36       293.1           293.1    
    481      4      6     36       292.4           292.4    
    482      4      7     36       291.7           291.7    
    483      4      8     36       291.1           291.1    
    484      4      9     36       290.4           290.4    
    485      4     10     36       289.6           289.6    
    486      4     11     36       288.9           288.9    
    487      4     12     36       288.1           288.1    
    488      4     13     36       287.2           287.2    
    489      4     14     36       286.2           286.2    
    490      4     15     36       285.0           285.0    
    491      4     16     36       283.9           283.9    
    492      4     17     36       283.8           283.8    
    493      4     18     36       284.0           284.0    
    494      4     19     36       284.2           284.2    
    495      4     20     36       284.4           284.4    
    496      4     21     36       284.5           284.5    
    497      4     22     36       284.6           284.6    
    498      4     23     36       284.7           284.7    
    499      4     24     36       284.7           284.7    
    500      4     25     36       284.7           284.7    
    501      4     26     36       284.6           284.6    
    502      4     27     36       284.4           284.4    
    503      4     28     36       284.2           284.2    
    504      4     29     36       284.0           284.0    
    505      4     30     36       283.7           283.7    
    506      4     31     36       283.4           283.4    
    507      4     32     36       283.1           283.1    
    508      4     33     36       282.6           282.6    
    509      4     34      1       305.6           305.6    
    510      4     34      2       305.2           305.2    
    511      4     34      3       304.8           304.8    
    512      4     34      4       304.3           304.3    
    513      4     34      5       303.8           303.8    
    514      4     34      6       303.2           303.2    
    515      4     34      7       302.6           302.6    
    516      4     34      8       301.9           301.9    
    517      4     34      9       301.2           301.2    
    518      4     34     10       300.5           300.5    
    519      4     34     11       299.7           299.7    
    520      4     34     12       298.8           298.8    
    521      4     34     13       297.9           297.9    
    522      4     34     14       296.9           296.9    
    523      4     34     15       295.9           295.9    
    524      4     34     16       294.9           294.9    
    525      4     34     17       293.9           293.9    
    526      4     34     18       293.1           293.1    
    527      4     34     19       292.3           292.3    
    528      4     34     20       291.6           291.6    
    529      4     34     21       291.0           291.0    
    530      4     34     22       290.3           290.3    
    531      4     34     23       289.7           289.7    
    532      4     34     24       289.0           289.0    
    533      4     34     25       288.4           288.4    
    534      4     34     26       287.8           287.8    
    535      4     34     27       287.2           287.2    
    536      4     34     28       286.6           286.6    
    537      4     34     29       286.1           286.1    
    538      4     34     30       285.5           285.5    
    539      4     34     31       285.0           285.0    
    540      4     34     32       284.4           284.4    
    541      4     34     33       283.8           283.8    
    542      4     34     34       283.3           283.3    
    543      4     34     35       282.7           282.7    
    544      4     34     36       282.1           282.1    


    544 TIME-VARIANT SPECIFIED-HEAD CELLS



 CLASSIFICATION & COUNT OF STREAM SEGMENTS BASED ON SOURCE OF INFLOW:

                HEADWATER     DIVERSION     RECEIVES TRIBUTARY FLOW
                ---------     ---------     -----------------------
                     2              0               0



                    INPUT DATA FOR EACH STREAM SEGMENT
 ---------------------------------------------------------------------------------------------

 SEGMENT    SEG.     INFLOW   OVERLAND   STREAM    STREAM   ICALC  OUTFLOW  DIVERSION PRIORITY
    NO.    LENGTH     RATE     RUNOFF      ET       PPT.    METH.  TO SEG.  FROM SEG.    NO.

      1  2.896E+03 0.000E+00 0.000E+00 0.000E+00 0.000E+00    1        0        0        0
      2  4.160E+03 0.000E+00 0.000E+00 0.000E+00 0.000E+00    1        0        0        0


         STREAMBED PROPERTIES AND STREAM DIMENSIONS

 SEGMENT     WIDTH OF STREAM     DEPTH OF STREAM    STREAM ROUGHNESS
    No.     UPPER     LOWER     UPPER     LOWER     CHANNEL      BANK

     1    1.000E+00 4.511E+00                      3.700E-02
     2    1.000E+00 4.037E+00                      3.700E-02




 SOLVING FOR HEAD 
                                                   Max.-Head-Change                         Max.-Flux-Residual
  Residual-Control   Outer-Iter.   Inner-Iter.     Column Row Layer    Maximum-Head-Change  Column Row Layer    Maximum-Flux-Residual          L2-NORM 
          0                 1          23            21   24     3       0.5640551147E+01      21   24    3         0.3341915292E+04      0.1460084697E+05
          0                 2          18            21   24     1      -0.1139772519E+01      21   24    1        -0.1274578940E+04      0.2041627275E+04
          0                 3          12            21   23     1      -0.7185748242E-01      20   24    1        -0.1293262758E+03      0.2321873345E+03
          0                 4           5            21   24     1       0.1080756962E-01      21   24    1         0.1837468980E+02      0.3261753234E+02
          0                 5           3            21   24     1       0.2001784563E-02      21   24    1         0.3209241383E+01      0.5093261210E+01

    ------------------------------------------------
       NWT REQUIRED            5 OUTER ITERATIONS 
       AND A TOTAL OF         61 INNER ITERATIONS.
    ------------------------------------------------

 OUTPUT CONTROL FOR STRESS PERIOD    1   TIME STEP    1
    SAVE HEAD FOR ALL LAYERS
    SAVE BUDGET
 UBDSV2 SAVING "   CONSTANT HEAD" ON UNIT  53 AT TIME STEP  1, STRESS PERIOD   1
 UBDSV1 SAVING "FLOW RIGHT FACE " ON UNIT  53 AT TIME STEP  1, STRESS PERIOD   1
 UBDSV1 SAVING "FLOW FRONT FACE " ON UNIT  53 AT TIME STEP  1, STRESS PERIOD   1
 UBDSV1 SAVING "FLOW LOWER FACE " ON UNIT  53 AT TIME STEP  1, STRESS PERIOD   1
 UBDSV4 SAVING "           WELLS" ON UNIT  53 AT TIME STEP  1, STRESS PERIOD   1
 UBDSV3 SAVING "        RECHARGE" ON UNIT  53 AT TIME STEP  1, STRESS PERIOD   1

 HEAD WILL BE SAVED ON UNIT   51 AT END OF TIME STEP    1, STRESS PERIOD    1
1
  VOLUMETRIC BUDGET FOR ENTIRE MODEL AT END OF TIME STEP    1, STRESS PERIOD   1
  ------------------------------------------------------------------------------

     CUMULATIVE VOLUMES      L**3       RATES FOR THIS TIME STEP      L**3/T
     ------------------                 ------------------------

           IN:                                      IN:
           ---                                      ---
             STORAGE =           0.0000               STORAGE =           0.0000
       CONSTANT HEAD =       22880.9199         CONSTANT HEAD =       22880.9199
               WELLS =           0.0000                 WELLS =           0.0000
            RECHARGE =       40427.5547              RECHARGE =       40427.5547
      STREAM LEAKAGE =         189.3582        STREAM LEAKAGE =         189.3582

            TOTAL IN =       63497.8359              TOTAL IN =       63497.8359

          OUT:                                     OUT:
          ----                                     ----
             STORAGE =           0.0000               STORAGE =           0.0000
       CONSTANT HEAD =       48969.5273         CONSTANT HEAD =       48969.5273
               WELLS =        3886.8379                 WELLS =        3886.8379
            RECHARGE =           0.0000              RECHARGE =           0.0000
      STREAM LEAKAGE =       10641.6123        STREAM LEAKAGE =       10641.6123

           TOTAL OUT =       63497.9805             TOTAL OUT =       63497.9805

            IN - OUT =          -0.1445              IN - OUT =          -0.1445

 PERCENT DISCREPANCY =          -0.00     PERCENT DISCREPANCY =          -0.00






         TIME SUMMARY AT END OF TIME STEP    1 IN STRESS PERIOD    1
                    SECONDS     MINUTES      HOURS       DAYS        YEARS
                    -----------------------------------------------------------
   TIME STEP LENGTH  86400.      1440.0      24.000      1.0000     2.73785E-03
 STRESS PERIOD TIME  86400.      1440.0      24.000      1.0000     2.73785E-03
         TOTAL TIME  86400.      1440.0      24.000      1.0000     2.73785E-03
1
1
                            STRESS PERIOD NO.    2, LENGTH =   31.00000    
                            -----------------------------------------------

                              NUMBER OF TIME STEPS =     5

                               MULTIPLIER FOR DELT =     1.500

                            INITIAL TIME STEP SIZE =   2.350711    

 OPENING FILE ON UNIT   99:
 external/WEL_0001.dat                                                                                                                                                                                   

 WELL NO.  LAYER   ROW   COL   STRESS RATE         
 --------------------------------------------------
      1      4     13     24       0.000    
      2      4      1      5       0.000    
      3      3     25     28       0.000    
      4      3      6      3       0.000    
      5      3      4      5       0.000    
      6      3     10      3       0.000    
      7      3     14      3       0.000    
      8      3     14     29       0.000    
      9      3     18      3       0.000    
     10      4     14     15       0.000    
     11      4     34     14       0.000    

     11 WELLS

 OPENING FILE ON UNIT   99:
 external/finf1.dat                                                                                                                                                                                      



                           RECHARGE
 READING ON UNIT   99 WITH FORMAT: (FREE)              

 OPENING FILE ON UNIT   99:
 external/CHD_0001.dat                                                                                                                                                                                   

 CHD NO.   LAYER   ROW   COL    START HEAD        END HEAD         
 ------------------------------------------------------------------
      1      1      1      1       314.6           314.5    
      2      1      1      2       314.5           314.4    
      3      1      1      3       314.4           314.3    
      4      1      1      4       314.3           314.2    
      5      1      1      5       314.1           314.1    
      6      1      1      6       314.1           314.0    
      7      1      1      7       313.9           313.9    
      8      1      1      8       313.8           313.7    
      9      1      1      9       313.5           313.5    
     10      1      1     10       313.2           313.1    
     11      1      1     11       312.9           312.8    
     12      1      1     12       312.5           312.4    
     13      1      1     13       312.0           311.9    
     14      1      1     14       311.5           311.4    
     15      1      1     15       310.9           310.8    
     16      1      1     16       310.3           310.2    
     17      1      1     17       309.7           309.6    
     18      1      1     18       309.0           308.9    
     19      1      1     19       308.3           308.1    
     20      1      1     20       307.5           307.3    
     21      1      1     21       306.6           306.5    
     22      1      1     22       305.8           305.7    
     23      1      1     23       305.0           304.9    
     24      1      1     24       304.2           304.2    
     25      1      1     25       303.5           303.4    
     26      1      1     26       302.8           302.8    
     27      1      1     27       302.2           302.1    
     28      1      1     28       301.5           301.4    
     29      1      1     29       300.8           300.7    
     30      1      1     30       300.2           300.1    
     31      1      1     31       299.5           299.4    
     32      1      1     32       298.9           298.8    
     33      1      1     33       298.2           298.1    
     34      1      1     34       297.5           297.4    
     35      1      1     35       296.8           296.7    
     36      1      1     36       296.0           295.9    
     37      1      2      1       314.4           314.3    
     38      1      3      1       314.3           314.2    
     39      1      4      1       314.1           314.0    
     40      1      5      1       313.9           313.8    
     41      1      6      1       313.7           313.7    
     42      1      7      1       313.5           313.5    
     43      1      8      1       313.4           313.3    
     44      1      9      1       313.2           313.2    
     45      1     10      1       313.0           313.0    
     46      1     11      1       312.8           312.8    
     47      1     12      1       312.7           312.6    
     48      1     13      1       312.5           312.5    
     49      1     14      1       312.3           312.3    
     50      1     15      1       312.1           312.1    
     51      1     16      1       311.9           311.9    
     52      1     17      1       311.7           311.7    
     53      1     18      1       311.5           311.5    
     54      1     19      1       311.3           311.3    
     55      1     20      1       311.1           311.1    
     56      1     21      1       310.9           310.8    
     57      1     22      1       310.6           310.5    
     58      1     23      1       310.2           310.2    
     59      1     24      1       309.9           309.9    
     60      1     25      1       309.6           309.4    
     61      1     26      1       309.2           308.9    
     62      1     27      1       308.7           308.5    
     63      1     28      1       308.3           308.1    
     64      1     29      1       307.9           307.7    
     65      1     30      1       307.4           307.3    
     66      1     31      1       307.0           306.8    
     67      1     32      1       306.5           306.4    
     68      1     33      1       306.1           305.9    
     69      1      2     36       295.2           295.2    
     70      1      3     36       294.5           294.5    
     71      1      4     36       293.8           293.8    
     72      1      5     36       293.1           293.1    
     73      1      6     36       292.4           292.4    
     74      1      7     36       291.8           291.7    
     75      1      8     36       291.1           291.0    
     76      1      9     36       290.4           290.3    
     77      1     10     36       289.6           289.6    
     78      1     11     36       288.9           288.8    
     79      1     12     36       288.1           288.0    
     80      1     13     36       287.2           287.1    
     81      1     14     36       286.2           286.1    
     82      1     15     36       284.9           284.9    
     83      1     16     36       283.2           283.1    
     84      1     17     36       283.6           283.6    
     85      1     18     36       284.0           283.9    
     86      1     19     36       284.2           284.2    
     87      1     20     36       284.4           284.4    
     88      1     21     36       284.6           284.5    
     89      1     22     36       284.7           284.6    
     90      1     23     36       284.8           284.7    
     91      1     24     36       284.8           284.7    
     92      1     25     36       284.8           284.7    
     93      1     26     36       284.7           284.6    
     94      1     27     36       284.5           284.4    
     95      1     28     36       284.3           284.2    
     96      1     29     36       284.1           284.0    
     97      1     30     36       283.8           283.7    
     98      1     31     36       283.4           283.4    
     99      1     32     36       283.2           283.2    
    100      1     33     36       282.7           282.7    
    101      1     34      1       305.7           305.5    
    102      1     34      2       305.3           305.1    
    103      1     34      3       304.9           304.7    
    104      1     34      4       304.5           304.2    
    105      1     34      5       303.9           303.7    
    106      1     34      6       303.3           303.1    
    107      1     34      7       302.7           302.5    
    108      1     34      8       302.0           301.8    
    109      1     34      9       301.3           301.1    
    110      1     34     10       300.6           300.4    
    111      1     34     11       299.8           299.6    
    112      1     34     12       298.9           298.8    
    113      1     34     13       298.0           297.9    
    114      1     34     14       297.1           297.0    
    115      1     34     15       295.9           295.9    
    116      1     34     16       294.6           294.6    
    117      1     34     17       293.7           293.6    
    118      1     34     18       292.9           292.8    
    119      1     34     19       292.2           292.1    
    120      1     34     20       291.5           291.5    
    121      1     34     21       290.9           290.8    
    122      1     34     22       290.3           290.2    
    123      1     34     23       289.6           289.5    
    124      1     34     24       289.0           288.9    
    125      1     34     25       288.4           288.3    
    126      1     34     26       287.8           287.7    
    127      1     34     27       287.2           287.1    
    128      1     34     28       286.6           286.6    
    129      1     34     29       286.1           286.0    
    130      1     34     30       285.5           285.4    
    131      1     34     31       285.0           284.9    
    132      1     34     32       284.4           284.4    
    133      1     34     33       283.9           283.8    
    134      1     34     34       283.3           283.3    
    135      1     34     35       282.7           282.7    
    136      1     34     36       282.1           282.1    
    137      2      1      1       314.6           314.5    
    138      2      1      2       314.5           314.4    
    139      2      1      3       314.4           314.3    
    140      2      1      4       314.3           314.2    
    141      2      1      5       314.1           314.1    
    142      2      1      6       314.1           314.0    
    143      2      1      7       313.9           313.9    
[...]
    338      3     31      1       308.3           308.4    
    339      3     32      1       307.9           308.0    
    340      3     33      1       307.5           307.5    
    341      3      2     36       296.1           296.1    
    342      3      3     36       295.4           295.4    
    343      3      4     36       294.7           294.7    
    344      3      5     36       294.0           294.0    
    345      3      6     36       293.2           293.3    
    346      3      7     36       292.5           292.6    
    347      3      8     36       291.8           291.9    
    348      3      9     36       291.1           291.1    
    349      3     10     36       290.4           290.4    
    350      3     11     36       289.6           289.6    
    351      3     12     36       288.8           288.7    
    352      3     13     36       287.8           287.8    
    353      3     14     36       286.7           286.7    
    354      3     15     36       285.3           285.3    
    355      3     16     36       283.5           283.5    
    356      3     17     36       283.9           283.9    
    357      3     18     36       284.3           284.3    
    358      3     19     36       284.7           284.7    
    359      3     20     36       284.9           284.9    
    360      3     21     36       285.1           285.1    
    361      3     22     36       285.3           285.3    
    362      3     23     36       285.5           285.4    
    363      3     24     36       285.6           285.5    
    364      3     25     36       285.5           285.5    
    365      3     26     36       285.4           285.4    
    366      3     27     36       285.2           285.2    
    367      3     28     36       285.0           284.9    
    368      3     29     36       284.6           284.6    
    369      3     30     36       284.2           284.2    
    370      3     31     36       283.6           283.6    
    371      3     32     36       283.5           283.5    
    372      3     33     36       283.2           283.2    
    373      3     34      1       307.0           307.1    
    374      3     34      2       306.6           306.7    
    375      3     34      3       306.2           306.2    
    376      3     34      4       305.7           305.7    
    377      3     34      5       305.2           305.2    
    378      3     34      6       304.5           304.5    
    379      3     34      7       303.9           303.9    
    380      3     34      8       303.1           303.2    
    381      3     34      9       302.3           302.4    
    382      3     34     10       301.6           301.6    
    383      3     34     11       300.7           300.8    
    384      3     34     12       299.8           299.9    
    385      3     34     13       298.8           299.0    
    386      3     34     14       297.9           298.0    
    387      3     34     15       296.5           296.6    
    388      3     34     16       295.3           295.3    
    389      3     34     17       294.4           294.4    
    390      3     34     18       293.6           293.7    
    391      3     34     19       292.9           293.0    
    392      3     34     20       292.3           292.3    
    393      3     34     21       291.6           291.7    
    394      3     34     22       291.0           291.1    
    395      3     34     23       290.4           290.4    
    396      3     34     24       289.8           289.8    
    397      3     34     25       289.2           289.2    
    398      3     34     26       288.6           288.6    
    399      3     34     27       288.0           288.0    
    400      3     34     28       287.4           287.4    
    401      3     34     29       286.9           286.8    
    402      3     34     30       286.3           286.2    
    403      3     34     31       285.7           285.6    
    404      3     34     32       285.1           285.1    
    405      3     34     33       284.6           284.5    
    406      3     34     34       284.0           284.0    
    407      3     34     35       283.4           283.4    
    408      3     34     36       282.8           282.8    
    409      4      1      1       316.0           316.1    
    410      4      1      2       315.9           316.0    
    411      4      1      3       315.8           315.9    
    412      4      1      4       315.7           315.8    
    413      4      1      5       315.6           315.7    
    414      4      1      6       315.5           315.5    
    415      4      1      7       315.3           315.3    
    416      4      1      8       315.1           315.1    
    417      4      1      9       314.8           314.9    
    418      4      1     10       314.5           314.5    
    419      4      1     11       314.1           314.2    
    420      4      1     12       313.7           313.7    
    421      4      1     13       313.2           313.3    
    422      4      1     14       312.7           312.7    
    423      4      1     15       312.1           312.1    
    424      4      1     16       311.5           311.5    
    425      4      1     17       310.8           310.8    
    426      4      1     18       310.1           310.1    
    427      4      1     19       309.3           309.3    
    428      4      1     20       308.4           308.5    
    429      4      1     21       307.6           307.6    
    430      4      1     22       306.7           306.8    
    431      4      1     23       305.9           306.0    
    432      4      1     24       305.2           305.2    
    433      4      1     25       304.4           304.5    
    434      4      1     26       303.7           303.8    
    435      4      1     27       303.0           303.1    
    436      4      1     28       302.3           302.4    
    437      4      1     29       301.7           301.7    
    438      4      1     30       301.0           301.0    
    439      4      1     31       300.4           300.4    
    440      4      1     32       299.7           299.7    
    441      4      1     33       299.0           299.1    
    442      4      1     34       298.3           298.3    
    443      4      1     35       297.6           297.6    
    444      4      1     36       296.8           296.8    
    445      4      2      1       315.8           315.9    
    446      4      3      1       315.7           315.7    
    447      4      4      1       315.5           315.6    
    448      4      5      1       315.3           315.4    
    449      4      6      1       315.1           315.2    
    450      4      7      1       315.0           315.1    
    451      4      8      1       314.8           314.9    
    452      4      9      1       314.6           314.7    
    453      4     10      1       314.5           314.6    
    454      4     11      1       314.3           314.4    
    455      4     12      1       314.1           314.2    
    456      4     13      1       313.9           314.1    
    457      4     14      1       313.8           313.9    
    458      4     15      1       313.6           313.7    
    459      4     16      1       313.4           313.5    
    460      4     17      1       313.2           313.2    
    461      4     18      1       312.9           313.0    
    462      4     19      1       312.7           312.8    
    463      4     20      1       312.4           312.5    
    464      4     21      1       312.1           312.2    
    465      4     22      1       311.8           311.9    
    466      4     23      1       311.5           311.6    
    467      4     24      1       311.1           311.2    
    468      4     25      1       310.7           310.8    
    469      4     26      1       310.3           310.4    
    470      4     27      1       309.9           310.0    
    471      4     28      1       309.4           309.5    
    472      4     29      1       309.0           309.1    
    473      4     30      1       308.5           308.6    
    474      4     31      1       308.1           308.2    
    475      4     32      1       307.7           307.8    
    476      4     33      1       307.2           307.3    
    477      4      2     36       296.1           296.1    
    478      4      3     36       295.3           295.4    
    479      4      4     36       294.6           294.7    
    480      4      5     36       293.9           294.0    
    481      4      6     36       293.2           293.3    
    482      4      7     36       292.5           292.6    
    483      4      8     36       291.8           291.9    
    484      4      9     36       291.1           291.1    
    485      4     10     36       290.4           290.4    
    486      4     11     36       289.6           289.6    
    487      4     12     36       288.7           288.7    
    488      4     13     36       287.8           287.8    
    489      4     14     36       286.7           286.7    
    490      4     15     36       285.4           285.4    
    491      4     16     36       284.2           284.2    
    492      4     17     36       284.1           284.1    
    493      4     18     36       284.3           284.3    
    494      4     19     36       284.6           284.6    
    495      4     20     36       284.9           284.9    
    496      4     21     36       285.1           285.1    
    497      4     22     36       285.3           285.3    
    498      4     23     36       285.4           285.4    
    499      4     24     36       285.5           285.5    
    500      4     25     36       285.5           285.4    
    501      4     26     36       285.3           285.3    
    502      4     27     36       285.1           285.1    
    503      4     28     36       284.9           284.8    
    504      4     29     36       284.5           284.5    
    505      4     30     36       284.1           284.1    
    506      4     31     36       283.7           283.7    
    507      4     32     36       283.4           283.4    
    508      4     33     36       283.1           283.1    
    509      4     34      1       306.8           306.9    
    510      4     34      2       306.4           306.5    
    511      4     34      3       305.9           306.0    
    512      4     34      4       305.4           305.5    
    513      4     34      5       304.8           304.9    
    514      4     34      6       304.2           304.3    
    515      4     34      7       303.5           303.6    
    516      4     34      8       302.8           302.9    
    517      4     34      9       302.1           302.2    
    518      4     34     10       301.3           301.4    
    519      4     34     11       300.5           300.6    
    520      4     34     12       299.6           299.7    
    521      4     34     13       298.7           298.8    
    522      4     34     14       297.7           297.8    
    523      4     34     15       296.6           296.8    
    524      4     34     16       295.6           295.7    
    525      4     34     17       294.6           294.7    
    526      4     34     18       293.8           293.9    
    527      4     34     19       293.0           293.1    
    528      4     34     20       292.4           292.4    
    529      4     34     21       291.7           291.7    
    530      4     34     22       291.1           291.1    
    531      4     34     23       290.4           290.4    
    532      4     34     24       289.8           289.8    
    533      4     34     25       289.2           289.2    
    534      4     34     26       288.6           288.6    
    535      4     34     27       288.0           288.0    
    536      4     34     28       287.4           287.4    
    537      4     34     29       286.8           286.8    
    538      4     34     30       286.2           286.2    
    539      4     34     31       285.6           285.6    
    540      4     34     32       285.1           285.0    
    541      4     34     33       284.5           284.5    
    542      4     34     34       283.9           283.9    
    543      4     34     35       283.3           283.3    
    544      4     34     36       282.7           282.7    


    544 TIME-VARIANT SPECIFIED-HEAD CELLS

 REUSING STREAM SEGMENT DATA FROM LAST STRESS PERIOD

 SOLVING FOR HEAD 
                                                   Max.-Head-Change                         Max.-Flux-Residual
  Residual-Control   Outer-Iter.   Inner-Iter.     Column Row Layer    Maximum-Head-Change  Column Row Layer    Maximum-Flux-Residual          L2-NORM 
          0                 1           5             5   33     1      -0.8324263968E-01       2   31    4         0.5579683114E+02      0.9003804892E+03
          0                 2           2            15   31     1       0.1931200236E-02      15   31    1         0.6218116321E+00      0.1102754410E+01

    ------------------------------------------------
       NWT REQUIRED            2 OUTER ITERATIONS 
       AND A TOTAL OF          7 INNER ITERATIONS.
    ------------------------------------------------

 NO OUTPUT CONTROL FOR STRESS PERIOD   85   TIME STEP    1

 SOLVING FOR HEAD 
                                                   Max.-Head-Change                         Max.-Flux-Residual
  Residual-Control   Outer-Iter.   Inner-Iter.     Column Row Layer    Maximum-Head-Change  Column Row Layer    Maximum-Flux-Residual          L2-NORM 
          0                 1           5            13   33     4       0.1617220287E-01      13   33    4         0.5293623108E+02      0.6262580791E+03
          0                 2           2             5   12     1      -0.1756215129E-02       5   12    1        -0.1651296707E+02      0.1651558360E+02

    ------------------------------------------------
       NWT REQUIRED            2 OUTER ITERATIONS 
       AND A TOTAL OF          7 INNER ITERATIONS.
    ------------------------------------------------

 NO OUTPUT CONTROL FOR STRESS PERIOD   85   TIME STEP    2

 SOLVING FOR HEAD 
                                                   Max.-Head-Change                         Max.-Flux-Residual
  Residual-Control   Outer-Iter.   Inner-Iter.     Column Row Layer    Maximum-Head-Change  Column Row Layer    Maximum-Flux-Residual          L2-NORM 
          0                 1           6            13   33     4       0.2195948993E-01       2    9    1         0.5480069510E+02      0.6263450211E+03
          0                 2           2             5   12     2       0.3679313307E-02       5   12    2         0.1589506087E+02      0.1836538197E+02

    ------------------------------------------------
       NWT REQUIRED            2 OUTER ITERATIONS 
       AND A TOTAL OF          8 INNER ITERATIONS.
    ------------------------------------------------

 NO OUTPUT CONTROL FOR STRESS PERIOD   85   TIME STEP    3

 SOLVING FOR HEAD 
                                                   Max.-Head-Change                         Max.-Flux-Residual
  Residual-Control   Outer-Iter.   Inner-Iter.     Column Row Layer    Maximum-Head-Change  Column Row Layer    Maximum-Flux-Residual          L2-NORM 
          0                 1           6             2   31     4       0.3088715713E-01       2    2    1         0.6343465813E+02      0.6350060866E+03
          0                 2           3            13   26     2       0.6703086187E-02      13   26    2         0.1594099552E+02      0.1634948740E+02

    ------------------------------------------------
       NWT REQUIRED            2 OUTER ITERATIONS 
       AND A TOTAL OF          9 INNER ITERATIONS.
    ------------------------------------------------

 NO OUTPUT CONTROL FOR STRESS PERIOD   85   TIME STEP    4

 SOLVING FOR HEAD 
                                                   Max.-Head-Change                         Max.-Flux-Residual
  Residual-Control   Outer-Iter.   Inner-Iter.     Column Row Layer    Maximum-Head-Change  Column Row Layer    Maximum-Flux-Residual          L2-NORM 
          0                 1           6             2   31     4       0.4517468931E-01       2    2    1         0.7901080202E+02      0.6593300397E+03
          0                 2           2            11   26     3       0.8390067454E-02      11   26    3         0.1555469694E+02      0.2694574042E+02

    ------------------------------------------------
       NWT REQUIRED            2 OUTER ITERATIONS 
       AND A TOTAL OF          8 INNER ITERATIONS.
    ------------------------------------------------

 OUTPUT CONTROL FOR STRESS PERIOD   85   TIME STEP    5
    SAVE HEAD FOR ALL LAYERS
    SAVE BUDGET
 UBDSV1 SAVING "         STORAGE" ON UNIT  53 AT TIME STEP  5, STRESS PERIOD  85
 UBDSV2 SAVING "   CONSTANT HEAD" ON UNIT  53 AT TIME STEP  5, STRESS PERIOD  85
 UBDSV1 SAVING "FLOW RIGHT FACE " ON UNIT  53 AT TIME STEP  5, STRESS PERIOD  85
 UBDSV1 SAVING "FLOW FRONT FACE " ON UNIT  53 AT TIME STEP  5, STRESS PERIOD  85
 UBDSV1 SAVING "FLOW LOWER FACE " ON UNIT  53 AT TIME STEP  5, STRESS PERIOD  85
 UBDSV4 SAVING "           WELLS" ON UNIT  53 AT TIME STEP  5, STRESS PERIOD  85
 UBDSV3 SAVING "        RECHARGE" ON UNIT  53 AT TIME STEP  5, STRESS PERIOD  85

 HEAD WILL BE SAVED ON UNIT   51 AT END OF TIME STEP    5, STRESS PERIOD   85
1
  VOLUMETRIC BUDGET FOR ENTIRE MODEL AT END OF TIME STEP    5, STRESS PERIOD  85
  ------------------------------------------------------------------------------

     CUMULATIVE VOLUMES      L**3       RATES FOR THIS TIME STEP      L**3/T
     ------------------                 ------------------------

           IN:                                      IN:
           ---                                      ---
             STORAGE =    48272788.0000               STORAGE =        1690.3373
       CONSTANT HEAD =    59083392.0000         CONSTANT HEAD =       25342.7637
               WELLS =           0.0000                 WELLS =           0.0000
            RECHARGE =   106025544.0000              RECHARGE =       56218.7422
      STREAM LEAKAGE =      908324.3125        STREAM LEAKAGE =           0.0000

            TOTAL IN =   214290048.0000              TOTAL IN =       83251.8438

          OUT:                                     OUT:
          ----                                     ----
             STORAGE =    60607124.0000               STORAGE =       13458.7656
       CONSTANT HEAD =   122319736.0000         CONSTANT HEAD =       51585.8008
               WELLS =     7151595.5000                 WELLS =           0.0000
            RECHARGE =           0.0000              RECHARGE =           0.0000
      STREAM LEAKAGE =    24211238.0000        STREAM LEAKAGE =       18207.6934

           TOTAL OUT =   214289696.0000             TOTAL OUT =       83252.2578

            IN - OUT =         352.0000              IN - OUT =          -0.4141

 PERCENT DISCREPANCY =           0.00     PERCENT DISCREPANCY =          -0.00






         TIME SUMMARY AT END OF TIME STEP    5 IN STRESS PERIOD   85
                    SECONDS     MINUTES      HOURS       DAYS        YEARS
                    -----------------------------------------------------------
   TIME STEP LENGTH 1.02820E+06  17137.      285.61      11.900     3.25817E-02
 STRESS PERIOD TIME 2.67840E+06  44640.      744.00      31.000     8.48734E-02
         TOTAL TIME 2.21011E+08 3.68352E+06  61392.      2558.0      7.0034    
1

 Run end date and time (yyyy/mm/dd hh:mm:ss): 2019/12/11 12:10:59
 Elapsed run time:  4.633 Seconds

